
  EPA STORM WATER MANAGEMENT MODEL - VERSION 5.1 (Build 5.3.0.dev0)
  --------------------------------------------------------------

  WARNING 04: minimum elevation drop used for Conduit WS02004404WS02004405
  WARNING 03: negative offset ignored for Link YS02001904YS02001907
  
  *********************************************************
  NOTE: The summary statistics displayed in this report are
  based on results found at every computational time step,  
  not just on results from each reporting time step.
  *********************************************************
  
  ****************
  Analysis Options
  ****************
  Flow Units ............... LPS
  Process Models:
    Rainfall/Runoff ........ YES
    RDII ................... NO
    Snowmelt ............... NO
    Groundwater ............ NO
    Flow Routing ........... YES
    Ponding Allowed ........ NO
    Water Quality .......... NO
  Infiltration Method ...... HORTON
  Flow Routing Method ...... DYNWAVE
  Surcharge Method ......... EXTRAN
  Starting Date ............ 03/31/2017 00:00:00
  Ending Date .............. 03/31/2017 03:00:00
  Antecedent Dry Days ...... 8.0
  Report Time Step ......... 00:00:30
  Wet Time Step ............ 00:01:00
  Dry Time Step ............ 00:01:00
  Routing Time Step ........ 30.00 sec
  Variable Time Step ....... YES
  Maximum Trials ........... 8
  Number of Threads ........ 6
  Head Tolerance ........... 0.001500 m
  
  
  **************************        Volume         Depth
  Runoff Quantity Continuity     hectare-m            mm
  **************************     ---------       -------
  Total Precipitation ......        11.303        95.917
  Evaporation Loss .........         0.000         0.000
  Infiltration Loss ........         0.322         2.733
  Surface Runoff ...........        10.653        90.399
  Final Storage ............         0.335         2.840
  Continuity Error (%) .....        -0.058
  
  
  **************************        Volume        Volume
  Flow Routing Continuity        hectare-m      10^6 ltr
  **************************     ---------     ---------
  Dry Weather Inflow .......         0.172         1.717
  Wet Weather Inflow .......        10.652       106.517
  Groundwater Inflow .......         0.000         0.000
  RDII Inflow ..............         0.000         0.000
  External Inflow ..........         0.037         0.366
  External Outflow .........         5.115        51.153
  Flooding Loss ............         5.717        57.171
  Evaporation Loss .........         0.000         0.000
  Exfiltration Loss ........         0.000         0.000
  Initial Stored Volume ....         0.303         3.031
  Final Stored Volume ......         0.365         3.648
  Continuity Error (%) .....        -0.304
  
  
  *************************
  Highest Continuity Errors
  *************************
  Node YS02001739 (100.00%)
  Node YS02001884 (8.38%)
  Node YS02004320 (4.00%)
  Node YS6162 (3.88%)
  Node WS02003059 (2.58%)
  
  
  ***************************
  Time-Step Critical Elements
  ***************************
  Link YS02005655YS02005657 (43.45%)
  Link WS02004041WS6409 (28.06%)
  Link WS02006252WS02006251 (10.95%)
  Link WS02006238WS02006235 (2.21%)
  Link WSF207WS02004410 (1.00%)
  
  
  ********************************
  Highest Flow Instability Indexes
  ********************************
  Link WS02003201WS02003202 (75)
  Link WS02003215WS02003116 (65)
  Link WS02003115WS02003215 (63)
  Link WS02006238WS02006235 (62)
  Link WS02003202WS02003203 (61)
  
  
  *************************
  Routing Time Step Summary
  *************************
  Minimum Time Step           :     0.50 sec
  Average Time Step           :     1.00 sec
  Maximum Time Step           :    30.00 sec
  Percent in Steady State     :    -0.00
  Average Iterations per Step :     6.13
  Percent Not Converging      :    42.88
  
  
  ***************************
  Subcatchment Runoff Summary
  ***************************
  
  ------------------------------------------------------------------------------------------------------------------------------
                            Total      Total      Total      Total     Imperv       Perv      Total       Total     Peak  Runoff
                           Precip      Runon       Evap      Infil     Runoff     Runoff     Runoff      Runoff   Runoff   Coeff
  Subcatchment                 mm         mm         mm         mm         mm         mm         mm    10^6 ltr      LPS
  ------------------------------------------------------------------------------------------------------------------------------
  sub0                      95.92       0.00       0.00       0.74      87.91       5.93      93.84        0.08    72.43   0.978
  sub1                      95.92       0.00       0.00       1.17      83.71       9.13      92.84        0.62   492.09   0.968
  sub2                      95.92       0.00       0.00       3.93      59.09      28.12      87.22        0.81   507.13   0.909
  sub3                      95.92       0.00       0.00       3.93      58.79      26.81      85.60        1.93  1096.77   0.892
  sub4                      95.92       0.00       0.00       1.17      82.47       8.89      91.36        1.91  1200.62   0.953
  sub5                      95.92       0.00       0.00       0.74      87.47       5.86      93.33        1.06   846.02   0.973
  sub6                      95.92       0.00       0.00       0.74      87.18       5.83      93.02        2.40  1809.78   0.970
  sub7                      95.92       0.00       0.00       0.96      85.85       7.56      93.41        0.31   277.38   0.974
  sub8                      95.92       0.00       0.00       0.96      85.77       7.54      93.30        0.60   507.79   0.973
  sub9                      95.92       0.00       0.00       0.96      85.75       7.53      93.28        0.45   379.18   0.973
  sub10                     95.92       0.00       0.00       0.85      86.59       6.69      93.28        1.03   839.07   0.972
  sub11                     95.92       0.00       0.00       0.85      86.74       6.72      93.46        1.09   936.27   0.974
  sub12                     95.92       0.00       0.00       1.38      82.18      10.91      93.10        0.81   750.40   0.971
  sub13                     95.92       0.00       0.00       3.61      62.21      27.32      89.54        1.06   791.53   0.933
  sub14                     95.92       0.00       0.00       0.96      85.73       7.53      93.26        0.89   745.46   0.972
  sub15                     95.92       0.00       0.00       3.19      65.92      24.12      90.04        1.55  1151.67   0.939
  sub16                     95.92       0.00       0.00       3.50      63.26      26.96      90.22        0.94   775.51   0.941
  sub17                     95.92       0.00       0.00       3.40      64.19      26.11      90.30        0.77   629.57   0.941
  sub18                     95.92       0.00       0.00       0.96      85.90       7.57      93.47        0.74   670.31   0.975
  sub19                     95.92       0.00       0.00       3.29      65.11      25.26      90.37        0.29   231.16   0.942
  sub20                     95.92       0.00       0.00       0.96      85.84       7.56      93.40        0.65   572.64   0.974
  sub21                     95.92       0.00       0.00       1.27      83.09      10.07      93.15        0.47   428.93   0.971
  sub22                     95.92       0.00       0.00       4.57      53.75      33.96      87.71        5.54  3830.17   0.914
  sub23                     95.92       0.00       0.00       3.93      59.42      29.73      89.16        4.25  3170.02   0.930
  sub24                     95.92       0.00       0.00       1.49      81.18      11.70      92.88        3.33  2979.48   0.968
  sub25                     95.92       0.00       0.00       0.74      87.93       5.94      93.87        1.22  1186.29   0.979
  sub26                     95.92       0.00       0.00       2.55      71.88      20.15      92.03        1.31  1286.41   0.960
  sub27                     95.92       0.00       0.00       0.96      85.70       7.52      93.22        1.35  1119.78   0.972
  sub28                     95.92       0.00       0.00       0.85      86.62       6.70      93.32        1.46  1208.51   0.973
  sub29                     95.92       0.00       0.00       0.85      86.17       6.64      92.80        1.50  1105.10   0.968
  sub30                     95.92       0.00       0.00       0.85      86.91       6.76      93.67        2.11  1955.86   0.977
  sub31                     95.92       0.00       0.00       1.81      78.44      14.25      92.70        1.97  1839.88   0.966
  sub32                     95.92       0.00       0.00       0.85      86.80       6.73      93.53        1.86  1649.71   0.975
  sub33                     95.92       0.00       0.00       1.38      82.19      10.92      93.12        1.70  1581.59   0.971
  sub34                     95.92       0.00       0.00       5.31      47.28      40.78      88.06        1.97  1563.36   0.918
  sub35                     95.92       0.00       0.00       0.85      87.06       6.81      93.88        0.33   349.55   0.979
  sub36                     95.92       0.00       0.00       2.34      73.76      18.44      92.20        0.80   765.51   0.961
  sub37                     95.92       0.00       0.00       4.14      57.70      32.40      90.10        0.69   626.01   0.939
  sub38                     95.92       0.00       0.00       3.72      61.49      29.26      90.75        1.72  1661.27   0.946
  sub39                     95.92       0.00       0.00       0.85      87.01       6.79      93.80        1.00  1000.66   0.978
  sub40                     95.92       0.00       0.00       0.85      87.02       6.79      93.81        1.09  1103.16   0.978
  sub41                     95.92       0.00       0.00       1.70      79.41      13.46      92.87        1.79  1705.36   0.968
  sub42                     95.92       0.00       0.00       0.96      86.06       7.63      93.68        0.94   934.84   0.977
  sub43                     95.92       0.00       0.00       4.04      58.58      31.06      89.64        0.73   601.56   0.935
  sub44                     95.92       0.00       0.00       0.74      87.59       5.88      93.47        1.06   882.43   0.974
  sub45                     95.92       0.00       0.00       1.81      78.26      14.08      92.35        1.69  1433.59   0.963
  sub46                     95.92       0.00       0.00       6.69      34.99      50.67      85.66        0.60   413.49   0.893
  sub47                     95.92       0.00       0.00       0.85      86.82       6.73      93.55        0.71   636.44   0.975
  sub48                     95.92       0.00       0.00       0.96      85.85       7.56      93.41        0.71   629.33   0.974
  sub49                     95.92       0.00       0.00       0.85      86.70       6.71      93.42        0.85   726.24   0.974
  sub50                     95.92       0.00       0.00       0.85      86.72       6.72      93.44        0.65   560.94   0.974
  sub51                     95.92       0.00       0.00       0.85      86.85       6.74      93.60        0.44   399.65   0.976
  sub52                     95.92       0.00       0.00       0.74      87.62       5.88      93.50        1.01   855.69   0.975
  sub53                     95.92       0.00       0.00       0.85      86.80       6.73      93.54        0.95   837.55   0.975
  sub54                     95.92       0.00       0.00       0.74      87.44       5.86      93.30        0.56   443.31   0.973
  sub55                     95.92       0.00       0.00       0.85      86.61       6.70      93.30        0.74   611.21   0.973
  sub56                     95.92       0.00       0.00       2.02      75.93      15.35      91.28        1.30   930.06   0.952
  sub57                     95.92       0.00       0.00       3.29      64.93      24.75      89.68        0.58   419.19   0.935
  sub58                     95.92       0.00       0.00       7.75      25.51      53.81      79.33        2.93  1410.03   0.827
  sub59                     95.92       0.00       0.00       8.18      21.72      52.15      73.87        1.69   691.02   0.770
  sub60                     95.92       0.00       0.00       1.27      83.00      10.03      93.02        1.22  1062.61   0.970
  sub61                     95.92       0.00       0.00       1.81      78.31      14.12      92.44        1.70  1475.25   0.964
  sub62                     95.92       0.00       0.00       0.85      86.54       6.69      93.23        2.55  2051.91   0.972
  sub67                     95.92       0.00       0.00       0.85      86.61       6.70      93.30        1.74  1426.62   0.973
  sub68                     95.92       0.00       0.00       1.49      81.02      11.62      92.64        2.55  2117.32   0.966
  sub71                     95.92       0.00       0.00       0.85      86.23       6.64      92.87        2.43  1817.73   0.968
  sub72                     95.92       0.00       0.00       0.74      86.71       5.79      92.50        1.27   873.64   0.964
  sub73                     95.92       0.00       0.00       2.23      74.70      17.62      92.32        0.09    86.60   0.962
  sub74                     95.92       0.00       0.00       3.40      64.29      26.58      90.87        0.15   133.43   0.947
  sub75                     95.92       0.00       0.00       3.19      66.20      25.03      91.23        0.20   189.00   0.951
  sub76                     95.92       0.00       0.00       1.91      77.51      15.10      92.61        0.23   213.23   0.966
  sub77                     95.92       0.00       0.00       1.81      78.48      14.30      92.78        0.15   142.57   0.967
  sub78                     95.92       0.00       0.00       1.38      82.18      10.91      93.09        0.26   235.51   0.971
  sub79                     95.92       0.00       0.00       2.55      71.78      19.88      91.66        0.24   208.85   0.956
  sub80                     95.92       0.00       0.00       3.50      63.34      27.33      90.67        0.27   237.94   0.945
  sub81                     95.92       0.00       0.00       3.93      59.54      30.36      89.90        0.28   232.70   0.937
  sub82                     95.92       0.00       0.00       3.93      59.55      30.49      90.05        0.27   235.47   0.939
  sub83                     95.92       0.00       0.00       4.04      58.62      31.40      90.03        0.30   268.09   0.939
  sub84                     95.92       0.00       0.00       3.72      61.40      28.65      90.05        0.49   407.09   0.939
  sub85                     95.92       0.00       0.00       2.55      71.76      19.85      91.61        0.41   355.44   0.955
  sub86                     95.92       0.00       0.00       2.76      69.90      21.50      91.40        0.44   387.31   0.953
  sub87                     95.92       0.00       0.00       3.72      61.44      28.86      90.30        0.27   236.22   0.941
  sub88                     95.92       0.00       0.00       3.61      62.39      28.10      90.49        0.28   244.27   0.943
  sub89                     95.92       0.00       0.00       3.29      65.25      25.83      91.08        0.24   224.84   0.950
  sub90                     95.92       0.00       0.00       2.87      69.01      22.50      91.51        0.23   208.36   0.954
  sub91                     95.92       0.00       0.00       2.87      69.05      22.65      91.70        0.17   163.26   0.956
  sub92                     95.92       0.00       0.00       3.29      65.29      26.05      91.34        0.14   138.82   0.952
  sub93                     95.92       0.00       0.00       3.29      65.29      26.08      91.37        0.17   169.07   0.953
  sub94                     95.92       0.00       0.00       3.29      65.27      25.94      91.21        0.20   191.68   0.951
  sub95                     95.92       0.00       0.00       3.08      67.17      24.34      91.51        0.14   137.17   0.954
  sub96                     95.92       0.00       0.00       2.34      73.82      18.62      92.44        0.17   181.65   0.964
  sub97                     95.92       0.00       0.00       6.48      36.93      51.19      88.11        0.21   202.86   0.919
  sub98                     95.92       0.00       0.00       7.65      26.50      58.85      85.35        0.28   204.33   0.890
  sub99                     95.92       0.00       0.00       8.39      19.87      62.65      82.53        0.29   164.55   0.860
  sub100                    95.92       0.00       0.00       8.39      19.86      60.90      80.76        0.28   141.07   0.842
  sub101                    95.92       0.00       0.00       8.39      19.86      60.71      80.57        0.27   134.02   0.840
  sub102                    95.92       0.00       0.00       8.07      22.69      57.00      79.69        0.24   114.47   0.831
  sub103                    95.92       0.00       0.00       8.28      20.80      57.61      78.41        0.37   168.02   0.817
  sub104                    95.92       0.00       0.00       8.28      20.80      57.18      77.97        0.41   181.66   0.813
  sub105                    95.92       0.00       0.00       8.60      17.97      59.32      77.29        0.44   187.00   0.806
  sub106                    95.92       0.00       0.00       8.39      19.86      59.56      79.42        0.41   189.25   0.828
  sub107                    95.92       0.00       0.00       8.60      17.97      62.45      80.43        0.57   278.46   0.838
  sub108                    95.92       0.00       0.00       8.71      17.04      65.25      82.29        0.77   433.99   0.858
  sub109                    95.92       0.00       0.00       6.80      34.05      51.60      85.65        1.22   849.33   0.893
  sub110                    95.92       0.00       0.00       1.91      77.45      15.01      92.46        1.94  1756.68   0.964
  sub111                    95.92       0.00       0.00       2.76      69.91      21.54      91.46        0.78   698.54   0.954
  sub112                    95.92       0.00       0.00       2.23      74.64      17.50      92.14        0.73   663.24   0.961
  sub113                    95.92       0.00       0.00       1.49      81.24      11.75      92.99        0.64   593.48   0.969
  sub114                    95.92       0.00       0.00       1.38      82.19      10.92      93.11        0.62   571.46   0.971
  sub115                    95.92       0.00       0.00       1.27      83.12      10.08      93.21        0.69   632.33   0.972
  sub116                    95.92       0.00       0.00       4.25      56.68      32.53      89.21        0.17   132.31   0.930
  sub117                    95.92       0.00       0.00       4.35      55.76      33.51      89.27        0.41   336.11   0.931
  
  
  ******************
  Node Depth Summary
  ******************
  
  ---------------------------------------------------------------------------------
                                 Average  Maximum  Maximum  Time of Max    Reported
                                   Depth    Depth      HGL   Occurrence   Max Depth
  Node                 Type       Meters   Meters   Meters  days hr:min      Meters
  ---------------------------------------------------------------------------------
  WS02001211           JUNCTION     1.01     4.10     8.94     0  00:24        1.79
  WS02001212           JUNCTION     0.78     3.80     8.86     0  00:24        1.56
  WS02001213           JUNCTION     1.03     3.96     8.72     0  00:24        1.86
  WS02003069           JUNCTION     0.97     3.13     7.72     0  00:23        1.68
  WS02003072           JUNCTION     1.03     1.58     5.95     0  00:30        1.58
  WS02003073           JUNCTION     1.24     1.70     5.77     0  00:31        1.70
  WS02003076           JUNCTION     0.97     1.36     5.58     0  00:30        1.35
  WS02003060           JUNCTION     0.87     1.99     6.92     0  00:24        1.68
  WS02003066           JUNCTION     0.55     1.18     6.73     0  00:30        1.17
  WS02003059           JUNCTION     1.10     2.99     7.67     0  00:24        1.93
  WS02003115           JUNCTION     1.72     2.76     9.62     0  00:11        2.73
  WS02003116           JUNCTION     1.86     3.03     9.74     0  00:11        2.94
  WS02003118           JUNCTION     1.85     2.90     9.52     0  00:11        2.90
  WS02003215           JUNCTION     1.74     2.80     9.66     0  00:14        2.80
  WS02003110           JUNCTION     1.38     2.54     9.79     0  00:12        2.45
  WS02003111           JUNCTION     1.48     2.35     9.44     0  00:11        2.35
  WS02005155           JUNCTION     1.38     2.66     9.97     0  00:12        2.66
  WS02005154           JUNCTION     1.18     2.67    10.30     0  00:12        2.67
  WS02005193           JUNCTION     1.48     3.22    11.04     0  00:20        3.10
  WS02005196           JUNCTION     1.45     3.31    11.15     0  00:20        3.07
  WS02003067           JUNCTION     0.90     1.49     6.81     0  00:30        1.47
  WS02004401           JUNCTION     1.50     2.66     8.66     0  00:15        2.49
  WS02004402           JUNCTION     1.50     2.74     8.70     0  00:17        2.49
  WS02004403           JUNCTION     1.49     2.78     8.71     0  00:17        2.48
  WS02004404           JUNCTION     1.55     2.77     8.62     0  00:17        2.53
  WS02004406           JUNCTION     1.50     2.77     8.60     0  00:17        2.49
  WS02004409           JUNCTION     1.26     2.85     8.62     0  00:16        2.29
  WS02004410           JUNCTION     1.17     2.50     8.22     0  00:17        2.08
  WS02004411           JUNCTION     1.08     2.28     7.96     0  00:17        1.86
  WS02004412           JUNCTION     0.99     2.25     7.89     0  00:17        1.62
  WS02004413           JUNCTION     1.03     2.90     8.37     0  00:17        1.54
  WS02004405           JUNCTION     1.53     2.72     8.57     0  00:17        2.50
  WS02006109           JUNCTION     1.84     2.64     9.26     0  00:15        2.64
  WS02006110           JUNCTION     1.68     2.76     9.34     0  00:15        2.48
  WS02006111           JUNCTION     1.12     2.68     9.39     0  00:15        1.99
  WS02006112           JUNCTION     1.77     2.68     8.56     0  00:00        2.68
  WS02006113           JUNCTION     1.19     2.73     9.62     0  00:15        1.99
  WS02006115           JUNCTION     1.45     3.26     9.40     0  00:15        2.40
  WS02006116           JUNCTION     1.51     3.35     9.39     0  00:15        2.48
  WS02006230           JUNCTION     1.87     2.65     9.39     0  00:14        2.65
  WS02006231           JUNCTION     1.46     2.24     9.36     0  00:14        2.19
  WS02006232           JUNCTION     1.51     2.18     9.22     0  00:14        2.18
  WS02006234           JUNCTION     1.34     1.96     9.12     0  00:14        1.96
  WS02006235           JUNCTION     1.33     2.00     9.16     0  00:14        1.93
  WS02006238           JUNCTION     1.34     2.15     9.29     0  00:14        1.93
  WS02006240           JUNCTION     1.14     2.10     9.39     0  00:14        1.62
  WS02006242           JUNCTION     1.12     1.55     8.82     0  00:14        1.55
  WS02006243           JUNCTION     0.97     1.48     8.90     0  00:15        1.37
  WS02006245           JUNCTION     0.91     1.56     9.04     0  00:15        1.27
  WS02006247           JUNCTION     0.89     1.47     8.97     0  00:15        1.23
  WS02006248           JUNCTION     0.80     1.10     8.69     0  00:15        1.10
  WS02006249           JUNCTION     0.81     1.09     8.69     0  00:15        1.09
  WS02006239           JUNCTION     1.24     2.03     9.24     0  00:14        1.78
  WS02006251           JUNCTION     1.30     2.21     9.88     0  00:20        2.20
  WS02006252           JUNCTION     0.88     1.50     9.74     0  00:15        1.50
  WS02006253           JUNCTION     1.65     3.52    11.16     0  00:20        3.27
  WS02006256           JUNCTION     1.75     2.35     9.28     0  00:13        2.35
  WS02004138           JUNCTION     0.12     0.14     7.39     0  00:33        0.14
  WS02004139           JUNCTION     0.95     3.88     8.79     0  00:24        1.72
  WS02004407           JUNCTION     0.91     3.25     9.56     0  00:17        1.95
  WS02006228           JUNCTION     2.05     3.03     9.68     0  00:15        3.03
  WS02006229           JUNCTION     2.14     3.25     9.94     0  00:15        3.22
  WS02006280           JUNCTION     0.96     1.78    10.05     0  00:17        1.74
  WS02006284           JUNCTION     1.19     2.03    10.43     0  00:16        1.94
  WS02006287           JUNCTION     0.94     1.74    10.70     0  00:22        1.74
  WS02003091           JUNCTION     2.51     3.99     9.79     0  00:11        3.91
  WS02003203           JUNCTION     2.46     3.83     9.82     0  00:00        3.83
  WS6145               JUNCTION     0.64     2.34    10.44     0  00:22        2.28
  WS6147               JUNCTION     0.55     2.23    10.50     0  00:22        2.14
  WS6150               JUNCTION     0.54     2.20    10.53     0  00:22        2.11
  WS6152               JUNCTION     0.54     2.19    10.53     0  00:22        2.12
  WS6155               JUNCTION     0.50     2.10    10.50     0  00:22        2.10
  WS6156               JUNCTION     0.48     2.05    10.52     0  00:22        2.05
  WS6136               JUNCTION     0.52     1.90    10.85     0  00:22        1.90
  WS6140               JUNCTION     0.71     2.45    10.39     0  00:23        2.44
  WS6142               JUNCTION     0.64     2.33    10.40     0  00:23        2.30
  WS6325               JUNCTION     0.89     2.73    10.38     0  00:27        2.72
  WS6327               JUNCTION     0.78     2.57    10.38     0  00:30        2.56
  WS6329               JUNCTION     0.74     2.50    10.39     0  00:32        2.50
  WS6332               JUNCTION     0.66     2.52    10.55     0  00:21        2.35
  WS6158               JUNCTION     0.44     2.05    10.59     0  00:22        2.05
  WS6335               JUNCTION     0.65     2.60    10.67     0  00:21        2.30
  WS6338               JUNCTION     0.58     2.55    10.75     0  00:21        2.18
  WS6340               JUNCTION     0.52     2.50    10.84     0  00:21        2.05
  WS6342               JUNCTION     0.42     2.50    11.10     0  00:21        1.79
  WS6135               JUNCTION     1.03     2.89    10.38     0  00:33        2.88
  WS6396               JUNCTION     0.67     2.01     9.56     0  00:31        2.01
  WS6399               JUNCTION     0.42     1.36     8.80     0  00:30        1.36
  WS02003082           JUNCTION     1.28     2.59     7.66     0  00:10        1.92
  WS02003077           JUNCTION     0.47     0.84     5.84     0  00:30        0.84
  WS02003080           JUNCTION     0.88     3.26     8.19     0  00:10        1.29
  WS02003083           JUNCTION     1.63     3.92     8.95     0  00:09        2.40
  WS02003084           JUNCTION     1.74     3.00     8.10     0  00:09        2.59
  WS02003085           JUNCTION     1.80     3.01     8.18     0  00:11        2.71
  WS02003086           JUNCTION     2.01     3.27     8.47     0  00:11        3.02
  WS02003087           JUNCTION     2.25     3.54     8.76     0  00:11        3.35
  WS02003088           JUNCTION     2.41     4.14     9.43     0  00:00        4.07
  WS02003089           JUNCTION     2.50     4.09     9.55     0  00:00        4.02
  WS02003090           JUNCTION     2.69     4.20     9.64     0  00:11        4.05
  WS02003081           JUNCTION     1.06     2.76     7.80     0  00:10        1.61
  WS02003122           JUNCTION     2.05     3.30     9.67     0  00:11        3.11
  WS02003187           JUNCTION     2.07     3.11     9.44     0  00:11        3.11
  WS02003188           JUNCTION     2.04     2.97     9.23     0  00:10        2.97
  WS02003190           JUNCTION     2.02     2.84     9.04     0  00:10        2.84
  WS02003193           JUNCTION     2.00     2.85     9.09     0  00:10        2.85
  WS02003195           JUNCTION     2.02     2.93     9.18     0  00:10        2.93
  WS02003196           JUNCTION     2.12     3.31     9.49     0  00:10        3.14
  WS02003198           JUNCTION     2.15     3.88    10.06     0  00:10        3.24
  WS02003200           JUNCTION     1.87     3.01     9.45     0  00:11        2.93
  WS02003201           JUNCTION     2.12     3.22     9.36     0  00:10        3.22
  WS02003202           JUNCTION     2.27     4.17    10.23     0  00:00        3.48
  WS02004041           JUNCTION     0.64     0.98     5.34     0  00:31        0.98
  WSA6400              JUNCTION     1.18     2.41     8.25     0  00:30        2.41
  WS6400               JUNCTION     0.59     1.69     8.35     0  00:30        1.67
  WSF208               JUNCTION     0.85     2.07     8.16     0  00:17        1.94
  WSF207               JUNCTION     0.72     2.04     8.18     0  00:17        1.67
  WSF206               JUNCTION     0.78     2.02     7.95     0  00:17        1.73
  WSF205               JUNCTION     0.72     1.75     7.65     0  00:17        1.61
  WSF204               JUNCTION     1.29     2.49     7.65     0  00:16        2.16
  WSF203               JUNCTION     0.65     1.54     7.25     0  00:17        1.36
  WSF202               JUNCTION     0.55     1.20     6.93     0  00:30        1.19
  WSF201               JUNCTION     0.47     1.05     6.77     0  00:30        1.04
  WSF200               JUNCTION     0.69     1.81     7.04     0  00:24        1.46
  HS02004901           JUNCTION     0.79     1.42    11.24     0  00:17        1.42
  HS02004881           JUNCTION     0.72     2.15    11.18     0  00:20        2.01
  HS02004876           JUNCTION     0.85     2.25    11.28     0  00:26        2.24
  HS02004870           JUNCTION     0.76     2.10    11.39     0  00:20        2.09
  HS02004862           JUNCTION     0.76     2.00    11.38     0  00:20        2.00
  HS02004856           JUNCTION     0.79     2.07    11.50     0  00:20        2.06
  HS02004852           JUNCTION     0.74     2.12    11.63     0  00:20        2.00
  HS02004848           JUNCTION     0.72     2.07    11.67     0  00:20        1.94
  HS02004842           JUNCTION     1.03     2.22    11.49     0  00:20        2.22
  HS02004837           JUNCTION     0.74     2.04    11.62     0  00:18        1.97
  HS02004830           JUNCTION     0.80     2.03    11.50     0  00:18        1.99
  HS02004824           JUNCTION     0.83     2.01    11.41     0  00:20        2.01
  HS02004817           JUNCTION     1.30     2.44    11.29     0  00:20        2.41
  HS02004807           JUNCTION     0.95     1.92    11.09     0  00:18        1.92
  HS02004802           JUNCTION     0.95     1.80    10.93     0  00:22        1.80
  HS02004799           JUNCTION     1.01     1.76    10.97     0  00:17        1.76
  HS02004792           JUNCTION     0.83     1.60    11.12     0  00:17        1.60
  HS02004788           JUNCTION     0.66     1.42    11.32     0  00:17        1.42
  HS02004785           JUNCTION     0.69     1.49    11.39     0  00:17        1.40
  HS02004777           JUNCTION     0.81     1.48    11.28     0  00:17        1.47
  HS02004770           JUNCTION     0.79     1.42    11.25     0  00:17        1.42
  HS02004480           JUNCTION     0.90     1.72    10.96     0  00:17        1.63
  HS02004479           JUNCTION     0.94     1.74    10.95     0  00:17        1.67
  HS02004478           JUNCTION     0.81     1.59    10.82     0  00:22        1.58
  HS02004053           JUNCTION     0.34     1.90    10.67     0  00:22        1.08
  HS02004052           JUNCTION     0.42     1.50    11.15     0  00:22        1.38
  HS02004049           JUNCTION     0.26     1.10    11.78     0  00:22        0.86
  HS02004048           JUNCTION     0.59     1.70    12.60     0  00:21        1.70
  HS02004046           JUNCTION     0.55     1.80    13.52     0  00:24        1.80
  HS02004043           JUNCTION     0.38     2.24    14.93     0  00:24        2.24
  HS02004041           JUNCTION     0.23     1.99    17.43     0  00:24        1.99
  HS02004038           JUNCTION     0.19     2.01    20.69     0  00:25        2.01
  HS02004036           JUNCTION     0.00     0.00    22.46     0  00:45        0.00
  HS02004034           JUNCTION     0.00     0.00    26.84     0  00:42        0.00
  HS02004028           JUNCTION     0.20     0.51    37.36     0  00:21        0.51
  HS02004027           JUNCTION     0.15     0.34    36.47     0  00:21        0.34
  HS02004026           JUNCTION     0.16     0.35    35.75     0  00:21        0.34
  HS02004024           JUNCTION     0.17     0.41    34.63     0  00:21        0.40
  HS02004022           JUNCTION     0.27     0.80    33.84     0  00:21        0.80
  HS02004021           JUNCTION     0.31     0.81    32.54     0  00:18        0.81
  HS02004019           JUNCTION     0.37     0.80    31.76     0  00:17        0.80
  HS02004018           JUNCTION     0.25     0.60    33.81     0  00:21        0.60
  HS02004017           JUNCTION     0.23     0.53    34.37     0  00:21        0.53
  HS02004013           JUNCTION     0.19     0.72    35.86     0  00:24        0.72
  HS02004010           JUNCTION     0.06     0.24    38.10     0  00:26        0.24
  HS02003174           JUNCTION     0.21     0.56     6.10     0  00:27        0.56
  HS02003171           JUNCTION     0.23     0.62     6.30     0  00:27        0.62
  HS02003170           JUNCTION     0.25     0.56     7.01     0  00:27        0.55
  HS02003168           JUNCTION     0.14     0.39     6.89     0  00:27        0.39
  HS02003166           JUNCTION     0.24     0.57     7.04     0  00:27        0.57
  HS02003162           JUNCTION     0.22     0.42    30.67     0  00:44        0.42
  HS02003160           JUNCTION     0.17     0.43    28.49     0  00:26        0.43
  HS02003150           JUNCTION     0.18     0.46    26.48     0  00:26        0.46
  HS02003148           JUNCTION     0.23     0.83    22.57     0  00:25        0.83
  HS02003145           JUNCTION     0.29     0.81    14.68     0  00:22        0.81
  HS02003143           JUNCTION     0.42     0.80    13.27     0  00:14        0.80
  HS02003138           JUNCTION     0.43     0.76     7.25     0  01:21        0.76
  HS02003136           JUNCTION     1.28     2.28    10.00     0  00:11        2.28
  HS02003125           JUNCTION     1.31     2.40     9.85     0  00:14        2.36
  HS02003122           JUNCTION     1.37     2.54     9.97     0  00:14        2.54
  HS02003119           JUNCTION     1.16     2.60    10.32     0  00:15        2.47
  HS02003116           JUNCTION     0.89     2.43    10.55     0  00:15        2.14
  HS02003111           JUNCTION     0.52     1.32    10.33     0  00:26        1.29
  HS02003108           JUNCTION     0.43     1.56    10.68     0  00:15        1.37
  HS02003100           JUNCTION     0.32     1.51    10.75     0  00:25        1.51
  HS02003088           JUNCTION     0.28     1.67    10.97     0  00:25        1.67
  HS02003084           JUNCTION     0.16     1.63    11.06     0  00:25        1.63
  HS02003079           JUNCTION     0.12     1.60    11.11     0  00:25        1.60
  HS02003077           JUNCTION     0.05     1.48    11.22     0  00:25        1.48
  HS02003065           JUNCTION     0.75     1.80    11.04     0  00:13        1.67
  HS02003056           JUNCTION     0.78     1.90    10.84     0  00:13        1.77
  HS02003053           JUNCTION     0.61     1.66    10.96     0  00:14        1.66
  HS02003042           JUNCTION     0.46     1.69    11.35     0  00:15        1.67
  HS02003039           JUNCTION     0.49     1.88    11.53     0  00:21        1.84
  HS02003036           JUNCTION     0.30     1.41    11.47     0  00:20        1.41
  HS02003028           JUNCTION     0.42     1.40    11.14     0  00:20        1.40
  HS02003021           JUNCTION     0.45     1.55    10.92     0  00:19        1.55
  HS02003018           JUNCTION     0.46     1.48    10.69     0  00:20        1.48
  HS02003017           JUNCTION     0.46     1.48    10.64     0  00:20        1.48
  HS02003013           JUNCTION     0.45     1.47    10.52     0  00:20        1.42
  HS02003010           JUNCTION     0.45     1.42    10.22     0  00:20        1.30
  HS02003007           JUNCTION     0.40     1.23     9.84     0  00:20        1.09
  HS02003004           JUNCTION     0.44     1.11     9.42     0  00:17        0.98
  HS02003001           JUNCTION     0.13     0.34     8.64     0  00:27        0.34
  YS02001738           JUNCTION     0.00     0.00     8.89     0  00:00        0.00
  YS02001739           JUNCTION     0.01     0.01     8.38     0  00:39        0.01
  YS02001742           JUNCTION     0.00     0.01     8.50     0  00:26        0.01
  YS02001745           JUNCTION     0.17     0.99     8.50     0  00:26        0.95
  YS02001748           JUNCTION     0.25     2.27     9.35     0  00:25        1.32
  YS02001751           JUNCTION     0.28     2.20     9.08     0  00:25        1.44
  YS02001754           JUNCTION     0.35     2.20     8.81     0  00:25        1.64
  YS02001762           JUNCTION     0.56     2.15     8.55     0  00:24        2.01
  YS02001765           JUNCTION     0.54     2.10     8.55     0  00:24        1.96
  YS02001767           JUNCTION     0.56     2.03     8.52     0  00:24        1.95
  YS02001770           JUNCTION     0.61     1.95     8.44     0  00:24        1.95
  YS02001774           JUNCTION     0.68     2.00     8.43     0  00:24        2.00
  YS02001779           JUNCTION     0.44     1.68     8.37     0  00:24        1.68
  YS02001882           JUNCTION     0.86     1.83     8.55     0  00:19        1.72
  YS02001884           JUNCTION     0.96     1.91     8.52     0  00:19        1.81
  YS02001759           JUNCTION     0.56     2.21     8.57     0  00:24        2.04
  YS02001887           JUNCTION     1.04     1.91     8.45     0  00:27        1.91
  YS02001890           JUNCTION     1.06     1.81     8.32     0  00:19        1.81
  YS02001898           JUNCTION     0.82     1.77     8.51     0  00:19        1.56
  YS02001901           JUNCTION     0.93     1.82     8.43     0  00:19        1.67
  YS02001904           JUNCTION     0.91     1.70     8.33     0  00:19        1.63
  YS02001907           JUNCTION     1.23     1.96     8.25     0  00:20        1.96
  YS02001910           JUNCTION     1.08     2.05     8.56     0  00:20        2.02
  YS02001915           JUNCTION     0.92     2.00     8.72     0  00:19        2.00
  YS02001918           JUNCTION     0.67     1.81     8.88     0  00:20        1.81
  YS02001920           JUNCTION     0.76     2.14     9.15     0  00:20        1.97
  YS02001923           JUNCTION     0.58     2.03     9.29     0  00:22        1.70
  YS02001926           JUNCTION     0.56     1.90     9.35     0  00:21        1.49
  YS02001929           JUNCTION     0.41     1.78     9.47     0  00:22        1.28
  YS02001932           JUNCTION     0.32     1.77     9.57     0  00:22        1.18
  YS02001935           JUNCTION     0.26     1.75     9.68     0  00:22        1.05
  YS02001757           JUNCTION     0.53     2.10     8.36     0  00:24        1.91
  YS02001895           JUNCTION     0.81     1.75     8.50     0  00:19        1.57
  YS02005679           JUNCTION     0.00     0.03    10.27     0  00:26        0.02
  YS02005559           JUNCTION     0.12     0.28    10.23     0  00:28        0.28
  YS02005651           JUNCTION     0.07     0.22    10.99     0  00:25        0.22
  YS02005670           JUNCTION     0.08     0.28    10.74     0  00:26        0.28
  YS02005547           JUNCTION     0.05     0.18    10.72     0  00:26        0.18
  YS02005549           JUNCTION     0.08     0.59    11.50     0  00:25        0.51
  YS02005550           JUNCTION     0.13     0.63    11.26     0  00:27        0.63
  YS02005551           JUNCTION     0.06     0.17    10.54     0  00:27        0.17
  YS02005553           JUNCTION     0.16     0.52    10.88     0  00:25        0.51
  YS02005554           JUNCTION     0.07     0.16    10.40     0  00:28        0.16
  YS02005556           JUNCTION     0.16     0.47    10.52     0  00:25        0.42
  YS02005557           JUNCTION     0.08     0.16    10.13     0  00:28        0.16
  YS02005560           JUNCTION     0.09     0.19     9.93     0  00:28        0.18
  YS02005562           JUNCTION     0.14     0.29    10.02     0  00:28        0.29
  YS02005563           JUNCTION     0.08     0.16     9.82     0  00:28        0.16
  YS02005565           JUNCTION     0.13     0.43    10.14     0  00:27        0.34
  YS02005566           JUNCTION     0.11     0.22     9.61     0  00:28        0.22
  YS02005568           JUNCTION     0.19     0.58    10.08     0  00:28        0.58
  YS02005569           JUNCTION     0.12     0.27     9.60     0  00:28        0.27
  YS02005598           JUNCTION     0.29     1.07    10.91     0  00:20        1.07
  YS02005600           JUNCTION     0.27     1.02    10.68     0  00:20        1.02
  YS02005602           JUNCTION     0.61     2.15    10.43     0  00:21        2.15
  YS02005603           JUNCTION     0.18     1.14     9.26     0  00:21        0.58
  YS02005609           JUNCTION     0.09     0.57     9.46     0  00:25        0.41
  YS02005653           JUNCTION     0.17     0.87    11.84     0  00:24        0.87
  YS02005654           JUNCTION     0.16     0.65    11.41     0  00:29        0.65
  YS02005655           JUNCTION     0.06     0.15    10.78     0  00:29        0.15
  YS02005595           JUNCTION     0.42     1.36    11.04     0  00:18        1.36
  YS02005658           JUNCTION     0.14     0.84    11.75     0  00:27        0.84
  YS02005659           JUNCTION     0.06     0.18    10.84     0  00:27        0.18
  YS02005661           JUNCTION     0.17     0.93    11.64     0  00:25        0.93
  YS02005662           JUNCTION     0.05     0.16    10.78     0  00:25        0.16
  YS02005664           JUNCTION     0.17     0.93    11.51     0  00:27        0.93
  YS02005665           JUNCTION     0.05     0.15    10.71     0  00:27        0.15
  YS02005668           JUNCTION     0.05     0.17    10.33     0  00:27        0.17
  YS02005667           JUNCTION     0.33     1.21    11.22     0  00:26        1.21
  YS02005571           JUNCTION     0.26     0.92    10.40     0  00:26        0.92
  YS02005572           JUNCTION     0.17     0.75    10.10     0  00:26        0.56
  YS02005576           JUNCTION     0.18     0.73    10.49     0  00:26        0.73
  YS02005577           JUNCTION     0.15     0.70    10.18     0  00:26        0.52
  YS02005579           JUNCTION     0.38     1.12    10.74     0  00:24        1.12
  YS02005580           JUNCTION     0.24     0.99    10.52     0  00:24        0.69
  YS02005582           JUNCTION     0.37     0.86    10.94     0  00:23        0.86
  YS02005583           JUNCTION     0.19     0.92    10.91     0  00:23        0.41
  YS02005612           JUNCTION     0.51     1.59     9.72     0  00:24        1.59
  YS02005615           JUNCTION     0.05     0.18    11.67     0  00:26        0.18
  YS02005616           JUNCTION     0.04     0.14    10.96     0  00:26        0.14
  YS02005618           JUNCTION     0.09     0.51    11.37     0  00:26        0.51
  YS02005619           JUNCTION     0.05     0.17    10.72     0  00:26        0.17
  YS02005621           JUNCTION     0.10     0.54    11.65     0  00:26        0.54
  YS02005622           JUNCTION     0.04     0.13    11.10     0  00:26        0.13
  YS02005625           JUNCTION     0.04     0.12    11.13     0  00:26        0.12
  YS02005627           JUNCTION     0.12     0.62    11.55     0  00:26        0.61
  YS02005628           JUNCTION     0.04     0.13    11.03     0  00:26        0.13
  YS02005630           JUNCTION     0.12     0.72    11.80     0  00:26        0.72
  YS02005631           JUNCTION     0.05     0.15    11.02     0  00:27        0.15
  YS02005633           JUNCTION     0.11     0.77    11.90     0  00:26        0.76
  YS02005634           JUNCTION     0.05     0.17    11.00     0  00:26        0.17
  YS02005636           JUNCTION     0.14     0.94    11.93     0  00:27        0.94
  YS02005637           JUNCTION     0.06     0.19    10.96     0  00:27        0.19
  YS02005639           JUNCTION     0.12     0.81    11.44     0  00:27        0.80
  YS02005640           JUNCTION     0.06     0.19    10.52     0  00:27        0.19
  YS02005642           JUNCTION     0.11     1.11    11.94     0  00:25        1.11
  YS02005644           JUNCTION     0.19     0.87    11.98     0  00:24        0.87
  YS02005645           JUNCTION     0.08     0.22    11.03     0  00:24        0.22
  YS02005647           JUNCTION     0.28     1.03    11.92     0  00:24        1.03
  YS02005648           JUNCTION     0.09     0.23    11.02     0  00:24        0.23
  YS02005650           JUNCTION     0.19     1.02    11.91     0  00:25        1.02
  YS02005671           JUNCTION     0.04     0.12    10.34     0  00:26        0.12
  YS02005673           JUNCTION     0.09     0.66    11.02     0  00:25        0.50
  YS02005674           JUNCTION     0.05     0.17    10.06     0  00:26        0.17
  YS02005676           JUNCTION     0.00     0.03    10.27     0  00:26        0.03
  YS02005680           JUNCTION     0.05     0.17    10.27     0  00:26        0.17
  YS02005682           JUNCTION     0.00     0.00    10.06     0  00:00        0.00
  YS02005683           JUNCTION     0.03     0.10     9.99     0  00:26        0.10
  YS02005376           JUNCTION     0.65     1.01    11.10     0  00:06        1.01
  YS02005378           JUNCTION     1.12     1.63    11.15     0  00:08        1.62
  YS02005381           JUNCTION     1.03     1.57    11.20     0  00:06        1.57
  YS02005624           JUNCTION     0.23     0.67    11.55     0  00:26        0.67
  YS02005384           JUNCTION     0.34     1.19    10.84     0  00:08        0.53
  YS02005677           JUNCTION     0.06     0.19    10.27     0  00:26        0.19
  YSB1105              JUNCTION     0.34     1.63    11.11     0  00:26        0.82
  YSB1106              JUNCTION     0.32     1.54    11.38     0  00:23        0.99
  YSB1109              JUNCTION     0.40     1.70    11.64     0  00:26        1.35
  YSB1112              JUNCTION     0.44     1.95    12.08     0  00:26        1.62
  YSB1115              JUNCTION     0.41     1.90    12.20     0  00:23        1.55
  YSB1118              JUNCTION     0.43     1.80    12.34     0  00:23        1.57
  YSB1121              JUNCTION     0.51     1.70    12.37     0  00:23        1.70
  YSB1124              JUNCTION     0.38     1.60    12.43     0  00:23        1.55
  YSB1128              JUNCTION     0.60     1.85    12.43     0  00:18        1.85
  YSB1132              JUNCTION     0.66     1.90    12.35     0  00:18        1.85
  YSB1228              JUNCTION     0.06     0.20    11.04     0  00:26        0.20
  YSB1202              JUNCTION     0.93     1.50    12.39     0  00:15        1.46
  YSB1135              JUNCTION     0.77     2.00    12.26     0  00:18        1.93
  YSB1138              JUNCTION     0.86     1.90    12.07     0  00:18        1.90
  YSB1141              JUNCTION     0.87     2.00    11.83     0  00:18        1.90
  YSB1145              JUNCTION     0.88     2.00    11.69     0  00:18        1.87
  YSB1148              JUNCTION     0.92     2.00    11.50     0  00:18        1.90
  YSB1151              JUNCTION     1.08     2.09    11.32     0  00:18        2.00
  YSB1154              JUNCTION     1.22     2.10    11.16     0  00:18        2.10
  YSB1198              JUNCTION     0.32     1.60    12.39     0  00:19        1.60
  YSB1192              JUNCTION     0.56     1.90    12.17     0  00:19        1.84
  YSB6556              JUNCTION     1.03     1.80    10.97     0  00:18        1.80
  YSB1205              JUNCTION     1.12     1.65    12.35     0  00:15        1.65
  YSB1209              JUNCTION     1.11     1.65    12.22     0  00:15        1.65
  YSB1212              JUNCTION     1.03     1.60    12.13     0  00:15        1.60
  YSB1215              JUNCTION     1.06     1.69    12.04     0  00:42        1.69
  YSB1218              JUNCTION     1.08     1.75    11.94     0  00:22        1.75
  YSB1221              JUNCTION     1.02     1.87    11.84     0  00:26        1.61
  YSB1224              JUNCTION     0.90     1.89    11.73     0  00:26        1.38
  YSB1195              JUNCTION     0.50     1.90    12.28     0  00:19        1.90
  YSB1189              JUNCTION     0.64     1.80    11.96     0  00:19        1.80
  YSB1186              JUNCTION     0.69     1.93    11.80     0  00:19        1.82
  YSB1183              JUNCTION     0.81     2.05    11.64     0  00:19        1.93
  YSB1180              JUNCTION     0.82     1.95    11.46     0  00:19        1.85
  YSB1177              JUNCTION     1.05     2.05    11.24     0  00:19        2.01
  YSB1174              JUNCTION     1.10     1.95    11.06     0  00:22        1.95
  YSB1171              JUNCTION     1.25     1.95    10.85     0  00:17        1.95
  YS02006553           JUNCTION     1.24     2.04     8.32     0  00:20        2.00
  YS02006561           JUNCTION     0.46     1.28     7.94     0  00:20        0.96
  YS02006562           JUNCTION     1.01     1.93     8.44     0  00:20        1.87
  YS02006556           JUNCTION     1.21     2.09     8.40     0  00:20        2.03
  YS02006558           JUNCTION     1.25     2.16     8.43     0  00:20        2.11
  YS6132               JUNCTION     0.61     3.39    10.71     0  00:35        1.57
  YS6137               JUNCTION     0.39     2.90    10.69     0  00:35        1.60
  YS6189               JUNCTION     0.50     2.80    10.59     0  00:35        1.94
  YS6184               JUNCTION     0.52     2.65    10.54     0  00:24        2.22
  YS6179               JUNCTION     0.47     2.60    10.58     0  00:30        2.18
  YS6176               JUNCTION     0.37     2.38    10.58     0  00:30        1.99
  YS6171               JUNCTION     0.38     2.10    10.51     0  00:24        1.96
  YS6168               JUNCTION     0.40     2.00    10.51     0  00:24        2.00
  YS6164               JUNCTION     0.24     1.90    10.63     0  00:24        1.90
  YS6162               JUNCTION     0.31     2.10    10.75     0  00:24        1.98
  YS6187               JUNCTION     0.54     2.75    10.53     0  00:35        2.06
  YS6363               JUNCTION     0.40     3.05    10.84     0  00:35        1.37
  YS6360               JUNCTION     0.52     3.00    10.80     0  00:35        1.59
  YS6354               JUNCTION     0.55     2.60    10.75     0  00:24        2.08
  YS6351               JUNCTION     0.65     2.50    10.71     0  00:24        2.33
  YS6350               JUNCTION     0.72     2.50    10.72     0  00:23        2.50
  YS6348               JUNCTION     0.69     2.45    10.85     0  00:22        2.45
  YS6344               JUNCTION     0.55     2.27    10.86     0  00:32        2.26
  YS6375               JUNCTION     0.11     0.43     8.85     0  00:27        0.43
  YS6377               JUNCTION     0.17     0.49     8.85     0  00:27        0.49
  YS6381               JUNCTION     0.19     0.58     8.71     0  00:27        0.58
  YS6386               JUNCTION     0.22     0.67     8.65     0  00:27        0.66
  YS6390               JUNCTION     0.42     0.74     8.43     0  00:27        0.74
  YS6394               JUNCTION     0.12     0.32     8.24     0  00:27        0.32
  YS6404               JUNCTION     0.55     3.00    10.23     0  00:23        1.18
  YS6401               JUNCTION     0.18     0.43     7.64     0  00:30        0.42
  YS02004319           JUNCTION     0.39     1.18    20.80     0  00:17        1.18
  YS02004320           JUNCTION     0.00     0.00    22.64     0  00:44        0.00
  YS02004321           JUNCTION     0.00     0.00    26.80     0  00:39        0.00
  YS02004307           JUNCTION     0.17     0.50    11.04     0  00:30        0.50
  YS02004309           JUNCTION     0.86     1.55    13.07     0  00:08        1.55
  YS02004312           JUNCTION     0.64     1.48    14.91     0  00:15        1.48
  YS02004314           JUNCTION     0.45     1.28    16.99     0  00:15        1.28
  YS02004316           JUNCTION     0.46     1.36    19.13     0  00:17        1.36
  YS02001783           JUNCTION     0.67     1.54     7.68     0  00:20        1.29
  YS02001784           JUNCTION     0.64     1.32     7.39     0  00:20        1.15
  YS02001786           JUNCTION     0.51     1.03     7.06     0  00:20        0.89
  YS02001788           JUNCTION     0.37     0.63     6.60     0  00:26        0.63
  YS02001790           JUNCTION     0.42     0.73     6.37     0  00:23        0.72
  YS02001791           JUNCTION     0.26     0.44     5.91     0  00:23        0.43
  YS02001793           JUNCTION     0.13     0.29     5.12     0  00:39        0.28
  YS02003309           JUNCTION     0.57     1.21     9.77     0  00:11        1.21
  YS02003306           JUNCTION     0.65     1.16     9.60     0  00:11        1.16
  YS02003269           JUNCTION     0.12     0.17     7.76     0  00:18        0.17
  YS02003272           JUNCTION     0.35     1.73     9.46     0  00:11        0.58
  YS02003278           JUNCTION     0.70     1.45     9.37     0  00:11        1.21
  YS02003281           JUNCTION     0.77     1.39     9.47     0  00:11        1.39
  YS02003284           JUNCTION     0.83     1.40     9.41     0  00:11        1.40
  YS02003287           JUNCTION     0.76     1.27     9.34     0  00:11        1.27
  YS02003290           JUNCTION     0.63     1.17     9.45     0  00:11        1.11
  YS02003294           JUNCTION     0.77     1.24     9.42     0  00:11        1.24
  YS02003275           JUNCTION     0.52     1.51     9.42     0  00:11        0.91
  YS02003297           JUNCTION     0.75     1.22     9.43     0  00:11        1.22
  YS02003300           JUNCTION     0.69     1.15     9.42     0  00:11        1.15
  YS02003303           JUNCTION     0.68     1.14     9.46     0  00:11        1.14
  YSB1227              JUNCTION     0.02     0.14    11.04     0  00:26        0.14
  CaochengRainPumpOutfall1 OUTFALL      0.00     0.00     6.00     0  00:00        0.00
  JiankangRainPumpOutfall2 OUTFALL      0.00     0.00     6.00     0  00:00        0.00
  JiankangRainPumpOutfall1 OUTFALL      0.00     0.00     6.00     0  00:00        0.00
  CaochengRainPumpOutfall2 OUTFALL      0.00     0.00     6.00     0  00:00        0.00
  YS02005684           OUTFALL      0.03     0.10     8.50     0  00:26        0.10
  YS02005681           OUTFALL      0.05     0.17     9.39     0  00:26        0.17
  YS02005678           OUTFALL      0.06     0.19     8.72     0  00:26        0.19
  YS02005675           OUTFALL      0.05     0.17     8.71     0  00:27        0.17
  YS02005672           OUTFALL      0.04     0.12     8.46     0  00:26        0.12
  YS02005669           OUTFALL      0.05     0.17     8.88     0  00:27        0.17
  YS02005666           OUTFALL      0.05     0.14     8.82     0  00:27        0.14
  YS02005663           OUTFALL      0.05     0.16     8.89     0  00:28        0.16
  YS02005660           OUTFALL      0.06     0.18     8.99     0  00:27        0.18
  YS02005657           OUTFALL      0.00     0.00     8.74     0  00:00        0.00
  YS02005652           OUTFALL      0.07     0.22     8.84     0  00:25        0.22
  YS02005649           OUTFALL      0.09     0.23     8.93     0  00:24        0.23
  YS02005646           OUTFALL      0.08     0.22     8.22     0  00:24        0.22
  YS02005643           OUTFALL      0.08     0.30     8.86     0  00:25        0.30
  YS02005641           OUTFALL      0.06     0.19     8.89     0  00:27        0.19
  YS02005638           OUTFALL      0.06     0.19     8.85     0  00:27        0.19
  YS02005635           OUTFALL      0.05     0.17     8.83     0  00:26        0.17
  YS02005632           OUTFALL      0.05     0.15     8.71     0  00:27        0.15
  YS02005629           OUTFALL      0.04     0.13     8.61     0  00:26        0.13
  YS02005626           OUTFALL      0.04     0.12     8.64     0  00:26        0.12
  YS02005623           OUTFALL      0.04     0.13     8.61     0  00:26        0.13
  YS02005620           OUTFALL      0.05     0.17     8.96     0  00:26        0.16
  YS02005617           OUTFALL      0.04     0.14     8.98     0  00:26        0.14
  YSB1103              OUTFALL      0.32     0.60     8.60     0  00:23        0.60
  YSB1229              OUTFALL      0.05     0.20     9.00     0  00:26        0.19
  YS02005548           OUTFALL      0.05     0.18     9.18     0  00:26        0.18
  YS02005552           OUTFALL      0.06     0.17     8.80     0  00:27        0.17
  YS02005555           OUTFALL      0.07     0.16     8.90     0  00:28        0.16
  YS02005558           OUTFALL      0.08     0.16     8.87     0  00:28        0.16
  YS02005561           OUTFALL      0.09     0.18     8.87     0  00:28        0.18
  YS02005564           OUTFALL      0.08     0.16     8.64     0  00:28        0.16
  YS02005567           OUTFALL      0.11     0.22     8.75     0  00:28        0.22
  YS02005570           OUTFALL      0.12     0.30     9.02     0  00:26        0.30
  YS02005574           OUTFALL      0.14     0.30     9.14     0  00:26        0.30
  YS02005578           OUTFALL      0.13     0.30     9.08     0  00:26        0.30
  WS02005134           OUTFALL      0.00     0.00     8.74     0  00:00        0.00
  YS02005581           OUTFALL      0.15     0.30     9.10     0  00:24        0.30
  YS02005584           OUTFALL      0.15     0.30     9.26     0  00:23        0.30
  YS02005593           OUTFALL      0.20     0.28     9.00     0  00:38        0.28
  YS02005596           OUTFALL      0.15     0.30     8.84     0  00:18        0.30
  YS02005374           OUTFALL      0.13     0.30     8.54     0  00:20        0.30
  YS02005375           OUTFALL      0.13     0.30     8.69     0  00:20        0.30
  YS02005607           OUTFALL      0.13     0.30     7.53     0  00:20        0.30
  YS02005610           OUTFALL      0.09     0.27     8.89     0  00:27        0.27
  YS02005613           OUTFALL      0.14     0.30     8.58     0  00:23        0.30
  HS02003172           OUTFALL      0.20     0.56     6.01     0  00:28        0.56
  YS6395               OUTFALL      0.12     0.32     6.74     0  00:27        0.32
  YS6405               OUTFALL      0.17     0.42     3.87     0  00:27        0.42
  WSC                  OUTFALL      0.58     0.80     5.00     0  00:21        0.80
  JiankangQianchi      STORAGE      2.51     4.21     5.01     0  00:39        4.16
  CaochengTiaoxuchi    STORAGE      0.93     1.47     6.97     0  00:40        1.47
  XierchiQianchi       STORAGE      6.97     7.47     5.47     0  02:02        7.47
  
  
  *******************
  Node Inflow Summary
  *******************
  
  -------------------------------------------------------------------------------------------------
                                  Maximum  Maximum                  Lateral       Total        Flow
                                  Lateral    Total  Time of Max      Inflow      Inflow     Balance
                                   Inflow   Inflow   Occurrence      Volume      Volume       Error
  Node                 Type           LPS      LPS  days hr:min    10^6 ltr    10^6 ltr     Percent
  -------------------------------------------------------------------------------------------------
  WS02001211           JUNCTION      7.35   610.99     0  00:19      0.0541        1.32       2.616
  WS02001212           JUNCTION      0.00   658.99     0  00:19           0        1.34       1.082
  WS02001213           JUNCTION      0.00   741.98     0  00:19           0        1.39       1.541
  WS02003069           JUNCTION      0.32  2518.51     0  00:31     0.00236        9.94       0.268
  WS02003072           JUNCTION      0.00  2518.41     0  00:31           0        9.95       0.289
  WS02003073           JUNCTION      1.82  3086.61     0  00:31      0.0134        12.8       0.145
  WS02003076           JUNCTION      0.00  3086.68     0  00:31           0        12.8       0.183
  WS02003060           JUNCTION     16.53  2518.06     0  00:31       0.122        10.1       0.255
  WS02003066           JUNCTION      0.00  2443.88     0  00:26           0        8.73       0.041
  WS02003059           JUNCTION      0.00   903.99     0  00:18           0        1.46       2.651
  WS02003115           JUNCTION      0.00   477.09     0  00:43           0        1.25      -0.019
  WS02003116           JUNCTION      0.08   368.40     0  00:11    0.000107       0.984       0.057
  WS02003118           JUNCTION      0.15   538.09     0  00:11    4.62e-06       0.987      -0.053
  WS02003215           JUNCTION      0.20  3232.26     0  00:27    0.000128        3.64      -0.063
  WS02003110           JUNCTION      0.18   608.09     0  00:27     0.00133       0.706      -0.063
  WS02003111           JUNCTION      1.57  1086.32     0  00:27      0.0108        1.88      -0.046
  WS02005155           JUNCTION      0.38   607.86     0  00:27     0.00281       0.694       0.005
  WS02005154           JUNCTION    632.33   632.33     0  00:27       0.686       0.688       0.160
  WS02005193           JUNCTION      0.00    74.90     0  00:15           0       0.021       0.234
  WS02005196           JUNCTION      0.00    27.37     0  00:08           0     0.00601       0.182
  WS02003067           JUNCTION      0.00  1926.75     0  00:25           0         7.2       0.097
  WS02004401           JUNCTION      0.04  1126.92     0  00:17    2.67e-06        5.08       0.357
  WS02004402           JUNCTION      0.00  1127.24     0  00:17           0        5.08       0.340
  WS02004403           JUNCTION      0.00  1127.27     0  00:17           0        5.08       0.312
  WS02004404           JUNCTION      0.16  1127.25     0  00:17     0.00119        5.08       0.240
  WS02004406           JUNCTION      0.00  1128.21     0  00:16           0        5.09       0.596
  WS02004409           JUNCTION      0.26  1860.96     0  00:22    0.000424        7.36       0.177
  WS02004410           JUNCTION      0.00  1926.51     0  00:25           0        7.48       0.201
  WS02004411           JUNCTION      0.00  1926.20     0  00:25           0        7.26       0.219
  WS02004412           JUNCTION      0.00  1926.29     0  00:25           0        7.24       0.241
  WS02004413           JUNCTION      0.00  1926.49     0  00:25           0        7.22       0.370
  WS02004405           JUNCTION      0.20  1127.72     0  00:16    0.000582        5.08       0.362
  WS02006109           JUNCTION      1.96  1308.01     0  00:00     0.00986        6.03       0.291
  WS02006110           JUNCTION      0.38  1241.99     0  00:15    0.000454        5.14      -0.547
  WS02006111           JUNCTION      0.04  1242.70     0  00:15    1.33e-05        5.15      -0.692
  WS02006112           JUNCTION      0.48  2307.30     0  00:00    3.43e-05        5.19       0.129
  WS02006113           JUNCTION      0.15  1242.04     0  00:15    8.79e-05        5.12      -0.734
  WS02006115           JUNCTION      0.00  1366.45     0  00:00           0        5.07       0.233
  WS02006116           JUNCTION      0.42  1127.06     0  00:17    0.000816        5.07       0.182
  WS02006230           JUNCTION     10.50  1027.00     0  00:22      0.0758        3.72       0.183
  WS02006231           JUNCTION      0.61   568.85     0  00:14     0.00183        2.11       0.111
  WS02006232           JUNCTION      0.35   453.62     0  01:07      0.0002        2.08       0.263
  WS02006234           JUNCTION      0.19   456.79     0  00:14    1.08e-05        2.06       0.061
  WS02006235           JUNCTION      0.82   532.50     0  00:14     0.00101        1.97       0.109
  WS02006238           JUNCTION      0.95   738.80     0  00:14    0.000411        1.79      -0.054
  WS02006240           JUNCTION      0.12   667.56     0  00:14    3.77e-06        1.78       0.108
  WS02006242           JUNCTION      1.46   620.63     0  00:14     0.00192        1.79       0.251
  WS02006243           JUNCTION      1.60   559.25     0  00:15     0.00327        1.31       0.081
  WS02006245           JUNCTION      1.39   421.14     0  00:15     0.00141        1.31       0.299
  WS02006247           JUNCTION      0.00   452.88     0  00:15           0        1.31       0.144
  WS02006248           JUNCTION      2.02   469.59     0  00:15     0.00338        1.56       0.053
  WS02006249           JUNCTION      0.11  1401.93     0  00:27    3.27e-06        4.95       0.079
  WS02006239           JUNCTION      0.85   573.14     0  00:14    0.000457        1.79       0.022
  WS02006251           JUNCTION      0.80  1798.02     0  00:27     0.00073        5.35       0.020
  WS02006252           JUNCTION      0.00   796.78     0  00:27           0        1.99      -0.029
  WS02006253           JUNCTION     72.43  1798.14     0  00:27       0.076        4.54       0.034
  WS02006256           JUNCTION      0.00   300.00     0  00:18           0        1.35       0.022
  WS02004138           JUNCTION      0.00   190.00     0  00:29           0        1.18       0.247
  WS02004139           JUNCTION      0.32   648.37     0  00:20     0.00237        1.22       2.233
  WS02004407           JUNCTION      0.10  1860.98     0  00:22    0.000165        7.45       0.121
  WS02006228           JUNCTION      1.34  1288.83     0  00:23     0.00133        6.01       0.172
  WS02006229           JUNCTION      1.08  2305.93     0  00:23     0.00118        9.13       0.134
  WS02006280           JUNCTION      0.27  2305.45     0  00:22    0.000545        8.56      -0.013
  WS02006284           JUNCTION      0.21  2305.72     0  00:22    0.000777        8.56       0.046
  WS02006287           JUNCTION      0.22  2305.64     0  00:23    0.000157        8.56       0.073
  WS02003091           JUNCTION      0.56   940.11     0  00:00     0.00145        2.89      -1.607
  WS02003203           JUNCTION      0.36  2286.02     0  00:00    0.000127        4.84      -0.330
  WS6145               JUNCTION      0.36   225.51     0  00:21    0.000663      0.0909       0.400
  WS6147               JUNCTION      0.00   225.99     0  00:21           0      0.0795       0.235
  WS6150               JUNCTION      0.27   226.26     0  00:21    0.000825      0.0687       0.511
  WS6152               JUNCTION      0.70   228.82     0  00:21     0.00446      0.0574       0.702
  WS6155               JUNCTION      0.17   222.26     0  00:22    0.000191      0.0423       0.556
  WS6156               JUNCTION      0.77   228.99     0  00:22       0.004      0.0309       0.467
  WS6136               JUNCTION      0.19   700.09     0  00:21    0.000107        1.48      -0.003
  WS6140               JUNCTION      0.27   224.00     0  00:21    0.000203       0.112       0.107
  WS6142               JUNCTION      0.27   224.88     0  00:21     0.00026       0.102       0.243
  WS6325               JUNCTION      0.26   114.40     0  00:21    0.000274       0.093       0.117
  WS6327               JUNCTION      0.23   111.25     0  00:21    0.000584      0.0818       0.130
  WS6329               JUNCTION      0.55   111.38     0  00:21     0.00228      0.0701       0.212
  WS6332               JUNCTION      0.39   111.70     0  00:21     0.00111      0.0566       0.211
  WS6158               JUNCTION      1.87   226.73     0  00:22      0.0122      0.0167      -1.013
  WS6335               JUNCTION      0.74   113.31     0  00:21     0.00389      0.0442       0.388
  WS6338               JUNCTION      0.46   114.14     0  00:21     0.00146       0.029       0.118
  WS6340               JUNCTION      0.36   115.40     0  00:21    0.000379      0.0163       0.316
  WS6342               JUNCTION      0.67   117.53     0  00:21     0.00328     0.00668      -0.995
  WS6135               JUNCTION      0.17   699.96     0  00:21    5.52e-05        1.57       0.140
  WS6396               JUNCTION      0.00   558.90     0  00:24           0        1.47       0.043
  WS6399               JUNCTION      0.09   558.84     0  00:24     0.00015        1.47       0.015
  WS02003082           JUNCTION      0.52   590.49     0  00:23     0.00172        2.92       0.308
  WS02003077           JUNCTION      0.60   591.31     0  00:23     0.00442         2.9       0.156
  WS02003080           JUNCTION      0.00   590.61     0  00:23           0         2.9       0.120
  WS02003083           JUNCTION      0.00   590.33     0  00:23           0        2.92       0.103
  WS02003084           JUNCTION      0.04   590.40     0  00:23    0.000324        2.92       0.102
  WS02003085           JUNCTION      0.00   590.45     0  00:23           0        2.92       0.010
  WS02003086           JUNCTION      0.49   590.31     0  00:23     0.00362        2.93       0.145
  WS02003087           JUNCTION      0.00  1088.75     0  00:00           0        2.93       0.136
  WS02003088           JUNCTION      0.55  2146.84     0  00:00     0.00172        2.95       0.123
  WS02003089           JUNCTION      0.30  1591.07     0  00:00    0.000655        2.93      -0.601
  WS02003090           JUNCTION      0.46   877.08     0  00:00    0.000948         2.9      -0.998
  WS02003081           JUNCTION      0.22   590.55     0  00:23    0.000132        2.91       0.242
  WS02003122           JUNCTION      0.00   419.38     0  00:11           0       0.974       0.260
  WS02003187           JUNCTION    882.43  1059.42     0  00:27        1.06           2       0.188
  WS02003188           JUNCTION      0.50   403.50     0  00:37     0.00132        1.56       0.314
  WS02003190           JUNCTION      0.59   608.64     0  00:37    0.000729        2.23       0.297
  WS02003193           JUNCTION   1433.59  1697.23     0  00:27        1.69         2.9       0.204
  WS02003195           JUNCTION      0.48   519.18     0  00:10     0.00115        1.28       0.409
  WS02003196           JUNCTION      0.00   356.38     0  00:10           0        1.29       0.493
  WS02003198           JUNCTION    413.49   438.20     0  00:00         0.6        1.39       0.642
  WS02003200           JUNCTION      4.23   348.41     0  00:10      0.0292       0.894      -2.301
  WS02003201           JUNCTION      0.19   647.13     0  00:27    9.36e-05        2.24      -0.693
  WS02003202           JUNCTION      0.04   708.98     0  00:00    7.35e-05        2.22       0.143
  WS02004041           JUNCTION      0.50  3085.66     0  00:31     0.00368        12.7       0.058
  WSA6400              JUNCTION      0.09   559.07     0  00:24    0.000353        1.47       0.207
  WS6400               JUNCTION      0.00   558.93     0  00:24           0        1.47       0.009
  WSF208               JUNCTION      0.00   558.99     0  00:24           0        1.47       0.083
  WSF207               JUNCTION      1.60   560.58     0  00:24      0.0118        1.69       0.027
  WSF206               JUNCTION      0.00   488.60     0  00:23           0        1.56       0.056
  WSF205               JUNCTION      0.00   488.64     0  00:23           0        1.56       0.268
  WSF204               JUNCTION      0.00   488.58     0  00:23           0        1.55       0.618
  WSF203               JUNCTION      0.00   488.66     0  00:23           0        1.54       0.231
  WSF202               JUNCTION      1.27   489.98     0  00:23     0.00936        1.55       0.134
  WSF201               JUNCTION      0.00   489.95     0  00:23           0        1.55       0.089
  WSF200               JUNCTION      0.00  2393.03     0  00:23           0        8.73       0.033
  HS02004901           JUNCTION      0.23   265.79     0  00:55    0.000163        0.66       0.397
  HS02004881           JUNCTION    277.38  1726.11     0  00:27       0.315        4.44       0.005
  HS02004876           JUNCTION    492.09  1521.12     0  00:36       0.617        4.13       0.082
  HS02004870           JUNCTION    507.79  1419.91     0  00:20       0.596        3.52       0.026
  HS02004862           JUNCTION    507.33  1386.94     0  00:28       0.814        3.31       0.039
  HS02004856           JUNCTION    379.18  1251.25     0  00:19       0.449         2.5       0.073
  HS02004852           JUNCTION      0.00  1124.54     0  00:19           0        2.05       0.051
  HS02004848           JUNCTION   1096.77  1128.65     0  00:19        1.93        2.51       0.033
  HS02004842           JUNCTION      0.13   915.62     0  00:18    7.37e-06        1.13       1.276
  HS02004837           JUNCTION    845.42   923.17     0  00:18        1.08        1.51       0.102
  HS02004830           JUNCTION      0.15   712.88     0  00:18     0.00111        1.13       0.208
  HS02004824           JUNCTION   1200.67  1801.51     0  00:29        1.91        2.82       0.049
  HS02004817           JUNCTION      0.79  1196.84     0  00:38     0.00449        2.28       0.846
  HS02004807           JUNCTION    936.27  2132.85     0  00:27        1.09         3.3       0.204
  HS02004802           JUNCTION      0.10  1233.23     0  00:27    4.31e-05        2.66       0.223
  HS02004799           JUNCTION    745.46  1887.56     0  00:27       0.888         5.5       0.142
  HS02004792           JUNCTION   3830.45  4820.25     0  00:27        5.54        8.23       0.025
  HS02004788           JUNCTION   1153.34  1153.34     0  00:28        1.56        2.75       0.021
  HS02004785           JUNCTION      0.15   598.25     0  00:17     0.00111        1.24       0.209
  HS02004777           JUNCTION      0.42   599.14     0  00:17     0.00121        1.25       0.595
  HS02004770           JUNCTION   3170.02  3344.75     0  00:28        4.25        4.32       0.114
  HS02004480           JUNCTION      0.30  2239.12     0  00:18    0.000668        6.29       0.058
  HS02004479           JUNCTION      0.41   708.74     0  00:18     0.00106        1.47       0.116
  HS02004478           JUNCTION      0.19  2306.00     0  00:22    0.000135        8.61      -0.001
  HS02004053           JUNCTION      0.12  1045.72     0  00:22    3.23e-05        2.45      -0.033
  HS02004052           JUNCTION      0.29  1080.68     0  00:22    0.000186        2.45       0.016
  HS02004049           JUNCTION      0.51  1517.83     0  00:22       0.002        3.09       0.004
  HS02004048           JUNCTION   1955.86  3229.06     0  00:27        2.11        3.97       0.006
  HS02004046           JUNCTION      0.92  1399.56     0  00:27      0.0059         1.9       0.066
  HS02004043           JUNCTION      1.70  1665.11     0  00:27      0.0111        1.96      -0.003
  HS02004041           JUNCTION      0.22  1815.00     0  00:27    0.000575        1.96       0.004
  HS02004038           JUNCTION   1839.92  1839.92     0  00:27        1.97        1.97       0.001
  HS02004036           JUNCTION      0.00     0.03     0  00:42           0    2.06e-06       2.057 ltr
  HS02004034           JUNCTION      0.07     0.07     0  00:42    2.09e-06    2.09e-06       0.035 ltr
  HS02004028           JUNCTION   1661.27  1661.27     0  00:26        1.72        1.72      -0.000
  HS02004027           JUNCTION      0.18   617.08     0  00:21    4.86e-05         1.3       0.002
  HS02004026           JUNCTION      0.17   617.29     0  00:21    3.86e-05         1.3       0.001
  HS02004024           JUNCTION      0.00   615.12     0  00:21           0         1.3       0.002
  HS02004022           JUNCTION    626.03  1226.18     0  00:27       0.687        1.98      -0.001
  HS02004021           JUNCTION      0.32   801.15     0  00:33      0.0017        1.78      -0.000
  HS02004019           JUNCTION      0.18  1523.37     0  00:21     5.4e-06        3.76       0.002
  HS02004018           JUNCTION    349.55  1132.71     0  00:26       0.326         2.3      -0.002
  HS02004017           JUNCTION      0.11  1602.31     0  00:24    3.39e-06        2.54       0.002
  HS02004013           JUNCTION   1563.36  2324.51     0  00:27        1.97        2.77      -0.001
  HS02004010           JUNCTION    765.51   765.51     0  00:26         0.8         0.8       0.001
  HS02003174           JUNCTION      0.00  3394.03     0  00:27           0        5.64       0.030
  HS02003171           JUNCTION    443.49  3280.66     0  00:27       0.558        5.22       0.058
  HS02003170           JUNCTION      0.00  2826.01     0  00:27           0        4.67       0.045
  HS02003168           JUNCTION      0.00  2834.56     0  00:27           0        4.67       0.028
  HS02003166           JUNCTION   1105.10  2817.10     0  00:27        1.49        4.67       0.019
  HS02003162           JUNCTION      0.19  1063.16     0  00:28     0.00011        3.15       0.004
  HS02003160           JUNCTION   1000.66  2063.71     0  00:26       0.998        4.15       0.002
  HS02003150           JUNCTION      0.19  2060.17     0  00:26    0.000286        4.15       0.002
  HS02003148           JUNCTION   1103.16  3153.99     0  00:26        1.09        5.25       0.000
  HS02003145           JUNCTION   1581.59  4157.17     0  00:25         1.7        6.84       0.000
  HS02003143           JUNCTION      0.29  2652.26     0  00:22     0.00143        6.13       0.023
  HS02003138           JUNCTION      0.41     0.41     0  00:37    0.000866    0.000866       0.000
  HS02003136           JUNCTION    636.44  2760.63     0  00:27       0.715        6.01       0.213
  HS02003125           JUNCTION      0.41  3232.45     0  00:27     0.00302        3.53       0.038
  HS02003122           JUNCTION    601.56  3418.63     0  00:26        0.73        3.52       0.021
  HS02003119           JUNCTION   1705.36  2828.48     0  00:26        1.79         2.8      -0.006
  HS02003116           JUNCTION      0.33  1126.22     0  00:26    0.000418       0.988      -0.023
  HS02003111           JUNCTION      0.00   936.23     0  00:26           0       0.955       0.349
  HS02003108           JUNCTION      0.00   935.90     0  00:26           0       0.956       0.643
  HS02003100           JUNCTION      0.00   935.78     0  00:26           0       0.956       0.296
  HS02003088           JUNCTION    934.89   935.34     0  00:26       0.942       0.996       0.144
  HS02003084           JUNCTION      0.03   381.41     0  00:16    0.000236      0.0847       0.113
  HS02003079           JUNCTION      0.22   299.26     0  00:16     0.00119        0.05       0.182
  HS02003077           JUNCTION      0.00   189.97     0  00:25           0       0.013      -0.696
  HS02003065           JUNCTION      0.29  1170.11     0  00:14    0.000341        3.73      -0.014
  HS02003056           JUNCTION      0.00  2124.62     0  00:27           0        5.28       0.018
  HS02003053           JUNCTION    629.34  1377.07     0  00:27       0.714        1.63       0.007
  HS02003042           JUNCTION      0.19   748.22     0  00:27    5.78e-06       0.901      -0.035
  HS02003039           JUNCTION      0.00   748.22     0  00:27           0       0.883       0.009
  HS02003036           JUNCTION   1649.77  1649.77     0  00:27        1.86        1.87       0.025
[...]
  HS02004028HS02004027        0.01      0.26      0.01      0.28         0.01
  HS02003143HS02003065        0.79      0.79      0.85      0.01         0.01
  HS02004842HS02004848        0.72      0.72      0.83      0.01         0.01
  HS02004837HS02004842        0.74      0.74      0.83      0.01         0.01
  HS02004830HS02004837        0.74      0.74      0.77      0.01         0.01
  HS02004824HS02004830        0.77      0.77      0.80      0.01         0.01
  HS02004817HS02004824        0.80      0.80      1.11      0.01         0.01
  HS02004770HS02004777        0.80      0.80      0.81      0.01         0.01
  HS02004799HS02004480        0.90      0.90      0.94      0.94         0.01
  HS02004792HS02004799        0.87      0.87      0.94      0.01         0.01
  HS02004788HS02004792        0.77      0.77      0.87      0.01         0.01
  HS02004785HS02004788        0.77      0.77      0.77      0.97         0.59
  HS02004777HS02004785        0.77      0.77      0.81      0.01         0.01
  HS02004480HS02004478        0.86      0.90      0.86      1.35         0.86
  HS02004479HS02004480        0.91      0.91      0.92      0.01         0.01
  HS02003013HS02003010        0.49      0.49      0.55      0.36         0.36
  HS02003010HS02003007        0.45      0.46      0.48      0.54         0.45
  HS02003007HS02003004        0.48      0.48      0.61      0.32         0.32
  HS02003004HS02003001        0.01      0.61      0.01      0.92         0.01
  HS02003065HS02003056        0.84      0.84      0.89      0.01         0.01
  HS02003042HS02003053        0.44      0.44      0.83      0.01         0.01
  HS02003028HS02003021        0.37      0.37      0.41      0.01         0.01
  HS02003021HS02003018        0.44      0.44      0.45      0.21         0.21
  HS02003018HS02003017        0.46      0.46      0.47      0.10         0.06
  HS02003017HS02003013        0.47      0.47      0.49      0.40         0.39
  HS02004862HS02004870        0.75      0.75      0.76      0.30         0.29
  HS02004848HS02004852        0.72      0.72      0.74      0.03         0.01
  HS02004856HS02004862        0.72      0.72      0.75      0.01         0.01
  HS02004852HS02004856        0.74      0.74      0.75      0.02         0.01
  HS02004024HS02004022        0.01      0.01      0.31      0.01         0.01
  HS02004022HS02004021        0.31      0.31      0.41      0.01         0.01
  HS02004021HS02004019        0.41      0.41      0.55      0.35         0.35
  HS02004019HS02003162        0.01      0.55      0.01      0.59         0.01
  HS02004052HS02004053        0.30      0.30      0.30      0.32         0.29
  HS02003122HS02003125        1.03      1.03      1.04      0.28         0.32
  HS02003119HS02003122        0.97      0.97      1.05      0.01         0.01
  HS02003116HS02003119        0.83      0.83      0.95      0.01         0.01
  HS02003111HS02003116        0.01      0.01      0.85      0.01         0.01
  HS02004018HS02004019        0.36      0.36      0.55      0.01         0.01
  HS02003056HS02003136        0.85      0.85      0.94      0.01         0.01
  HS02004017HS02004018        0.34      0.34      0.36      0.01         0.01
  HS02004013HS02004017        0.15      0.15      0.34      0.16         0.14
  HS02004010HS02004013        0.01      0.01      0.15      0.01         0.01
  HS02004802HS02004478        0.86      0.86      0.90      0.33         0.01
  HS02004478WS02006287        0.78      0.78      0.88      0.01         0.01
  HS02003079HS02003084        0.08      0.08      0.09      0.01         0.01
  HS02003150HS02003148        0.01      0.01      0.08      0.01         0.01
  HS02003148HS02003145        0.08      0.08      0.25      0.03         0.01
  HS02003145HS02003143        0.25      0.25      0.76      0.24         0.22
  HS02003136WS02003203        1.02      1.02      1.15      0.01         0.01
  HS02003084HS02003088        0.10      0.10      0.13      0.01         0.01
  HS02003077HS02003079        0.04      0.04      0.08      0.01         0.01
  HS02003108HS02003111        0.29      0.29      0.51      0.06         0.06
  HS02003100HS02003108        0.16      0.16      0.29      0.01         0.01
  HS02003088HS02003100        0.14      0.14      0.16      0.09         0.08
  HS02004817HS02004807        0.88      0.88      1.11      0.01         0.01
  HS02004807HS02004802        0.88      0.88      0.90      0.50         0.50
  HS02003053HS02003056        0.83      0.83      0.89      0.01         0.01
  HS02003039HS02003042        0.50      0.50      0.55      0.36         0.04
  HS02003036HS02003039        0.31      0.31      0.37      0.07         0.07
  YS02001759YS02001757        0.29      0.29      0.31      0.27         0.23
  YS02001762YS02001759        0.28      0.28      0.29      0.18         0.16
  YS02001765YS02001762        0.28      0.28      0.28      0.08         0.07
  YS02001770YS02001767        0.27      0.29      0.27      0.80         0.27
  YS02001774YS02001770        0.28      0.28      0.32      0.01         0.01
  YS02001779YS02001774        0.25      0.25      0.32      0.01         0.01
  YS02001767YS02001765        0.27      0.27      0.28      0.25         0.21
  YS02006561YS02001783        0.63      0.63      0.78      0.01         0.01
  YS02001783YS02001784        0.76      0.78      0.76      0.85         0.76
  YS02001784YS02001785        0.69      0.76      0.69      0.94         0.69
  YS02001790YS02001791        0.01      0.01      0.01      0.76         0.01
  YS02001910YS02001907        0.79      0.79      0.89      0.17         0.17
  YS02001786YS02001788        0.01      0.69      0.01      0.90         0.01
  YS02001915YS02001910        0.74      0.74      0.79      0.01         0.02
  YS02001918YS02001915        0.68      0.68      0.74      0.01         0.01
  YS02001923YS02001920        0.61      0.61      0.69      0.01         0.01
  YS02001926YS02001923        0.30      0.30      0.33      0.13         0.01
  YS02001929YS02001926        0.19      0.19      0.33      0.01         0.01
  YS02001932YS02001929        0.16      0.17      0.19      0.01         0.01
  YS02001935YS02001932        0.07      0.07      0.14      0.01         0.01
  YS02001920YS02001918        0.68      0.68      0.69      0.01         0.01
  YS02003290YS02003287        0.98      0.98      1.08      0.01         0.01
  YS02003294YS02003290        0.98      0.98      1.10      0.01         0.01
  YS02003297YS02003294        1.08      1.08      1.08      0.13         0.13
  YS02003275YS02003272        0.91      0.95      0.91      1.04         0.91
  YS02003300YS02003297        1.02      1.02      1.07      0.01         0.01
  YS02003303YS02003300        0.98      0.98      1.05      0.01         0.01
  YS02005550YS02005551        0.01      0.14      0.01      0.18         0.01
  YS02005568YS02005569        0.01      0.29      0.01      0.38         0.01
  YS02005582YS02005583        0.44      0.68      0.44      0.78         0.44
  YS02003272YS02003269        0.01      0.94      0.01      1.04         0.01
  YS02003278YS02003275        0.97      1.09      0.97      1.28         0.97
  YS02003281YS02003278        1.02      1.02      1.07      0.96         0.96
  YS02003284YS02003281        1.02      1.02      1.08      0.60         0.45
  YS02003287YS02003284        1.06      1.06      1.10      0.01         0.01
  YS02003306YS02003303        0.96      0.96      1.02      0.66         0.66
  YS02003309YS02003306        0.93      0.93      0.96      0.01         0.01
  YS02005600YS02005375        0.31      0.31      0.32      0.32         0.31
  YS02005384YS02005593        0.01      0.97      0.01      1.01         0.01
  YS02005595YS02005596        0.41      0.41      0.41      0.43         0.41
  YS02005609YS02005610        0.01      0.06      0.01      0.09         0.01
  YS02005612YS02005613        0.22      0.22      0.92      0.41         0.01
  YS02005549YS02005547        0.01      0.05      0.01      0.06         0.01
  YS02005553YS02005554        0.01      0.20      0.01      0.32         0.01
  YS02005556YS02005557        0.01      0.19      0.01      0.37         0.01
  YS02005559YS02005560        0.01      0.01      0.01      0.14         0.01
  YS02005562YS02005563        0.01      0.01      0.01      0.32         0.01
  YS02005565YS02005566        0.01      0.06      0.01      0.15         0.01
  YS02005569YS02005570        0.01      0.01      0.09      0.09         0.01
  YS02005571YS02005572        0.22      0.39      0.22      0.56         0.22
  YS02005572YS02005574        0.17      0.22      0.17      0.25         0.17
  YS02005576YS02005577        0.15      0.22      0.15      0.28         0.15
  YS02005577YS02005578        0.15      0.15      0.16      0.18         0.15
  YS02005579YS02005580        0.37      0.58      0.37      0.71         0.37
  YS02005580YS02005581        0.32      0.37      0.32      0.39         0.32
  YS02005583YS02005584        0.44      0.44      0.46      0.46         0.44
  YS02006553YS02006556        0.84      0.84      0.89      0.01         0.01
  YS02006556YS02006558        0.87      0.87      0.90      0.01         0.01
  YSB6556YSB1171              0.95      0.95      1.15      0.01         0.01
  YSB1202YSB1205              1.22      1.22      1.29      0.01         0.01
  YSB1205YSB1209              1.29      1.29      1.30      0.60         0.54
  YSB1209YSB1212              1.25      1.30      1.25      1.55         1.24
  YSB1212YSB1215              1.24      1.25      1.29      0.38         0.36
  YSB1215YSB1218              1.29      1.29      1.31      0.42         0.41
  YSB1218YSB1221              1.24      1.24      1.34      1.09         1.09
  YSB1221YSB1224              1.34      1.34      1.37      1.23         1.23
  YSB1224YSB1105              0.98      1.49      0.98      1.75         0.98
  YSB1189YSB1186              0.75      0.75      0.81      0.27         0.27
  YS02001907YS02006553        0.94      0.94      0.97      0.03         0.05
  YS02006562YS02006558        0.78      0.78      0.90      0.01         0.01
  YS02006558YS02006561        0.71      0.83      0.71      0.93         0.71
  YS6184YS6187                0.25      0.25      0.27      0.18         0.19
  YS6360YS6363                0.22      0.27      0.22      0.84         0.21
  YS6354YS6360                0.33      0.33      0.33      0.34         0.31
  YS6351YS6354                0.33      0.36      0.33      0.59         0.33
  YS6350YS6351                0.36      0.39      0.36      0.85         0.36
  YS6348YS6350                0.37      0.37      0.39      0.30         0.29
  YS6344YS6348                0.37      0.37      0.43      0.01         0.01
  YS6363YS6132                0.22      0.22      0.39      0.01         0.01
  YS6137YS6132                0.29      0.29      0.49      0.06         0.05
  YS6189YS6137                0.29      0.29      0.31      1.00         0.01
  YS6187YS6189                0.25      0.25      0.27      0.41         0.01
  YS6179YS6184                0.23      0.23      0.25      0.01         0.01
  YS6176YS6179                0.18      0.18      0.23      0.01         0.01
  YS6171YS6176                0.20      0.20      0.23      0.04         0.05
  YS6168YS6171                0.19      0.19      0.20      0.16         0.16
  YS6164YS6168                0.15      0.15      0.19      0.01         0.01
  YS6162YS6164                0.19      0.19      0.20      0.01         0.01
  YS6132YS6404                0.02      0.27      0.02      0.41         0.01
  YSB1106YSB1105              0.15      0.28      0.15      0.33         0.15
  YSB1109YSB1106              0.28      0.34      0.28      0.49         0.28
  YSB1112YSB1109              0.34      0.34      0.34      0.36         0.34
  YSB1115YSB1112              0.33      0.33      0.34      0.11         0.10
  YSB1118YSB1115              0.34      0.35      0.34      0.36         0.34
  YSB1121YSB1118              0.35      0.37      0.35      0.50         0.35
  YSB1124YSB1121              0.34      0.34      0.37      0.01         0.01
  YSB1105YSB1103              0.23      0.23      0.27      0.27         0.23
  YS02001745YS02001748        0.01      0.01      0.06      0.01         0.01
  YS02001748YS02001751        0.08      0.08      0.13      0.01         0.01
  YS02001751YS02001754        0.13      0.13      0.19      0.01         0.01
  YS02001754YS02001757        0.20      0.20      0.31      0.01         0.01
  YS02001882YS02001884        0.75      0.75      0.75      0.01         0.01
  YS02001884YS02001887        0.76      0.76      0.77      0.01         0.01
  YS02001890YS02001895        0.74      0.74      0.80      0.01         0.01
  YS02001895YS02001898        0.73      0.73      0.74      0.01         0.01
  YS02001898YS02001901        0.74      0.74      0.77      0.01         0.01
  YS02001901YS02001904        0.76      0.76      0.77      0.01         0.01
  YS02001904YS02001907        0.76      0.76      0.89      0.01         0.01
  YS02001887YS02001890        0.78      0.78      0.79      0.28         0.01
  YS02004309YS02004307        0.27      0.91      0.27      0.91         0.27
  YS02004319YS02004316        0.45      0.45      0.46      0.01         0.01
  YS02005670YS02005671        0.01      0.01      0.01      0.04         0.01
  YS02005673YS02005674        0.01      0.05      0.01      0.06         0.01
  YS02005376YS02005378        1.10      1.10      1.54      0.01         0.01
  YS02005378YS02005381        1.25      1.25      1.54      0.21         0.01
  YS02005381YS02005384        0.97      0.97      1.25      1.38         0.01
  YS02005598YS02005374        0.33      0.33      0.34      0.34         0.33
  YS02005602YS02005603        0.28      0.65      0.28      0.80         0.28
  YS02005603YS02005607        0.28      0.28      0.30      0.30         0.28
  YS02005618YS02005619        0.01      0.05      0.01      0.07         0.01
  YS02005621YS02005622        0.01      0.06      0.01      0.12         0.01
  YS02005624YS02005625        0.01      0.01      0.33      0.08         0.01
  YS02005630YS02005631        0.01      0.10      0.01      0.15         0.01
  YS02005633YS02005634        0.01      0.10      0.01      0.12         0.01
  YS02005636YS02005637        0.01      0.14      0.01      0.18         0.01
  YS02005639YS02005640        0.01      0.12      0.01      0.14         0.01
  YS02005642YS02005643        0.06      0.07      0.07      0.07         0.06
  YS02005627YS02005628        0.01      0.10      0.01      0.34         0.01
  YS02005644YS02005645        0.01      0.22      0.01      0.26         0.01
  YS02005650YS02005651        0.01      0.21      0.01      0.31         0.01
  YS02005653YS02005654        0.19      0.19      0.20      0.19         0.18
  YS02005654YS02005655        0.01      0.20      0.01      0.30         0.01
  YS02005658YS02005659        0.01      0.13      0.01      0.17         0.01
  YS02005661YS02005662        0.01      0.19      0.01      0.32         0.01
  YS02005664YS02005665        0.01      0.19      0.01      0.61         0.01
  YS02005667YS02005668        0.01      0.01      0.71      0.23         0.01
  YS02005647YS02005648        0.01      0.38      0.01      0.56         0.01
  YS02004312YS02004309        0.82      0.82      0.91      0.01         0.01
  YS02004314YS02004312        0.52      0.52      0.82      0.01         0.01
  YS02004316YS02004314        0.46      0.46      0.52      0.43         0.43
  YS02004320YS02004319        0.01      0.01      0.37      0.01         0.01
  YS6404YS6401                0.01      0.02      0.01      0.82         0.01
  YSB1132YSB1135              0.74      0.74      0.77      0.01         0.01
  YSB1135YSB1138              0.77      0.77      0.79      0.01         0.01
  YSB1138YSB1141              0.79      0.79      0.85      0.56         0.56
  YSB1141YSB1145              0.83      0.83      0.85      0.54         0.51
  YSB1148YSB1151              0.88      0.88      0.97      0.01         0.01
  YSB1151YSB1154              0.94      0.94      1.00      0.01         0.01
  YSB1154YSB6556              0.95      0.95      1.00      0.57         0.01
  YSB1128YSB1132              0.73      0.73      0.74      0.01         0.01
  YSB1145YSB1148              0.85      0.85      0.88      0.01         0.01
  YSB1198YSB1195              0.37      0.37      0.71      0.01         0.01
  YSB1195YSB1192              0.71      0.71      0.73      0.01         0.01
  YSB1192YSB1189              0.73      0.73      0.75      0.01         0.01
  YSB1186YSB1183              0.78      0.78      0.83      0.01         0.01
  YSB1183YSB1180              0.83      0.83      0.86      0.32         0.32
  YSB1180YSB1177              0.86      0.86      0.98      0.01         0.01
  YSB1177YSB1174              0.98      0.98      1.03      0.33         0.34
  YSB1174YSB1171              0.97      0.97      1.09      0.27         0.27
  YSB1171HS02004479           0.89      0.89      1.00      0.01         0.01
  HS02003001HS02003166        0.01      0.01      0.13      0.01         0.01
  YS02004307HS02004052        0.01      0.01      0.30      0.01         0.01
  HS02004881HS02006253        0.79      0.79      1.11      0.01         0.01
  WS0200404049WS6136          0.28      0.28      0.37      0.01         0.01
  HS02003125WS02003215        1.04      1.04      1.12      0.01         0.01
  YS02001793JiankangQianchi        0.01      0.01      2.04      0.01         0.01
  YS02001757CaochengTiaoxuchi        0.31      0.31      0.71      0.20         0.19
  WS02004041WS6409            0.84      0.84      0.89      0.89         0.84
  WSF200WS02003060            0.33      0.33      0.65      0.01         0.01
  HS02004053WS02004407        0.30      0.30      0.88      0.01         0.01
  HS02003036HS02003028        0.31      0.31      0.40      0.04         0.04
  
  
  ***************
  Pumping Summary
  ***************
  
  ---------------------------------------------------------------------------------------------------------
                                                  Min       Avg       Max     Total     Power    % Time Off
                        Percent   Number of      Flow      Flow      Flow    Volume     Usage    Pump Curve
  Pump                 Utilized   Start-Ups       LPS       LPS       LPS  10^6 ltr     Kw-hr    Low   High
  ---------------------------------------------------------------------------------------------------------
  CaochengSewagePump1     61.54           1      0.00    200.00    200.00     0.907      7.10    0.0    0.0
  CaochengSewagePump2     46.84           1      0.00    200.00    200.00     0.690      5.51    0.0    0.0
  CaochengRainPump1       43.89           1      0.00    683.00    683.00     2.209      4.00    0.0   27.4
  CaochengRainPump2       39.68           1      0.00    683.00    683.00     1.997      3.54    0.0   30.4
  JiankangSewagePump      60.94           1      0.00    300.00    300.00     1.347     22.00    0.0    0.0
  JiankangRainPump1       35.71           3      0.00   1000.00   1000.00     2.631     18.36    0.0    0.0
  JiankangRainPump2        0.00           0      0.00      0.00      0.00     0.000      0.00    0.0    0.0
  XierchiSewagePump1      91.85           1      0.00     95.00     95.00     0.643      3.97    0.0    0.0
  XierchiSewagePump2      76.35           1      0.00     95.00     95.00     0.535      3.13    0.0    0.0
  XierchiSewagePump3       0.00           0      0.00      0.00      0.00     0.000      0.00    0.0    0.0
  XierchiSewagePump4       0.00           0      0.00      0.00      0.00     0.000      0.00    0.0    0.0
  

  Analysis begun on:  Mon Aug  1 17:25:49 2022
  Analysis ended on:  Mon Aug  1 17:53:07 2022
  Total elapsed time: 00:27:18