
  EPA STORM WATER MANAGEMENT MODEL - VERSION 5.1 (Build 5.3.0.dev0)
  --------------------------------------------------------------

  WARNING 04: minimum elevation drop used for Conduit WS02004404WS02004405
  WARNING 03: negative offset ignored for Link YS02001904YS02001907
  
  *********************************************************
  NOTE: The summary statistics displayed in this report are
  based on results found at every computational time step,  
  not just on results from each reporting time step.
  *********************************************************
  
  ****************
  Analysis Options
  ****************
  Flow Units ............... LPS
  Process Models:
    Rainfall/Runoff ........ YES
    RDII ................... NO
    Snowmelt ............... NO
    Groundwater ............ NO
    Flow Routing ........... YES
    Ponding Allowed ........ NO
    Water Quality .......... NO
  Infiltration Method ...... HORTON
  Flow Routing Method ...... DYNWAVE
  Surcharge Method ......... EXTRAN
  Starting Date ............ 03/31/2017 00:00:00
  Ending Date .............. 03/31/2017 03:00:00
  Antecedent Dry Days ...... 8.0
  Report Time Step ......... 00:00:30
  Wet Time Step ............ 00:01:00
  Dry Time Step ............ 00:01:00
  Routing Time Step ........ 30.00 sec
  Variable Time Step ....... YES
  Maximum Trials ........... 8
  Number of Threads ........ 6
  Head Tolerance ........... 0.001500 m
  
  
  **************************        Volume         Depth
  Runoff Quantity Continuity     hectare-m            mm
  **************************     ---------       -------
  Initial LID Storage ......         0.378         3.209
  Total Precipitation ......        11.461        97.262
  Evaporation Loss .........         0.000         0.000
  Infiltration Loss ........         0.600         5.095
  Surface Runoff ...........         6.741        57.208
  LID Drainage .............         0.628         5.326
  Final Storage ............         3.889        33.004
  Continuity Error (%) .....        -0.161
  
  
  **************************        Volume        Volume
  Flow Routing Continuity        hectare-m      10^6 ltr
  **************************     ---------     ---------
  Dry Weather Inflow .......         0.171         1.707
  Wet Weather Inflow .......         7.341        73.411
  Groundwater Inflow .......         0.000         0.000
  RDII Inflow ..............         0.000         0.000
  External Inflow ..........         0.032         0.321
  External Outflow .........         4.324        43.239
  Flooding Loss ............         3.007        30.073
  Evaporation Loss .........         0.000         0.000
  Exfiltration Loss ........         0.000         0.000
  Initial Stored Volume ....         0.303         3.031
  Final Stored Volume ......         0.546         5.459
  Continuity Error (%) .....        -0.385
  
  
  *************************
  Highest Continuity Errors
  *************************
  Node WS02005193 (57.28%)
  Node YS02001884 (26.48%)
  Node YS02001774 (12.73%)
  Node YS02004320 (10.76%)
  Node HS02003116 (6.56%)
  
  
  ***************************
  Time-Step Critical Elements
  ***************************
  Link YS02005655YS02005657 (38.76%)
  Link WS02006252WS02006251 (23.60%)
  Link WS02004041WS6409 (19.90%)
  Link WS02006280WS02006229 (1.92%)
  Link WS02003073WS02003076 (1.79%)
  
  
  ********************************
  Highest Flow Instability Indexes
  ********************************
  Link WS02006238WS02006235 (76)
  Link WS02004404WS02004405 (66)
  Link WS02003215WS02003116 (66)
  Link WS02003200WS02003201 (66)
  Link WS02003203WS02003091 (65)
  
  
  *************************
  Routing Time Step Summary
  *************************
  Minimum Time Step           :     0.50 sec
  Average Time Step           :     0.96 sec
  Maximum Time Step           :    30.00 sec
  Percent in Steady State     :     0.00
  Average Iterations per Step :     6.41
  Percent Not Converging      :    36.58
  
  
  ***************************
  Subcatchment Runoff Summary
  ***************************
  
  ------------------------------------------------------------------------------------------------------------------------------
                            Total      Total      Total      Total     Imperv       Perv      Total       Total     Peak  Runoff
                           Precip      Runon       Evap      Infil     Runoff     Runoff     Runoff      Runoff   Runoff   Coeff
  Subcatchment                 mm         mm         mm         mm         mm         mm         mm    10^6 ltr      LPS
  ------------------------------------------------------------------------------------------------------------------------------
  sub0                      97.26       0.00       0.00       0.74      88.10       5.76      93.86        0.08    59.55   0.965
  sub1                      97.26       0.00       0.00       5.73      45.43       4.85      59.16        0.39   254.56   0.608
  sub2                      97.26       0.00       0.00       5.81      35.97      16.73      58.25        0.54   302.03   0.599
  sub3                      97.26       0.00       0.00       5.11      39.05      17.28      60.27        1.36   699.91   0.620
  sub4                      97.26       0.00       0.00       2.96      53.90       5.72      63.51        1.32   749.78   0.653
  sub5                      97.26       0.00       0.00       6.54      40.92       2.68      54.02        0.61   388.43   0.555
  sub6                      97.26       0.00       0.00       5.47      44.62       2.92      56.11        1.45   901.03   0.577
  sub7                      97.26       0.00       0.00       2.31      62.91       5.39      71.15        0.24   175.65   0.732
  sub8                      97.26       0.00       0.00       1.47      62.55       5.36      69.30        0.44   321.46   0.712
  sub9                      97.26       0.00       0.00       1.81      62.77       5.38      70.14        0.34   241.66   0.721
  sub10                     97.26       0.00       0.00       4.43      51.53       3.89      62.11        0.69   460.85   0.639
  sub11                     97.26       0.00       0.00       3.47      56.15       4.24      65.47        0.76   538.97   0.673
  sub12                     97.26       0.00       0.00       6.72      38.06       4.91      53.11        0.46   323.95   0.546
  sub13                     97.26       0.00       0.00       4.28      58.30      24.40      84.25        1.00   626.52   0.866
  sub14                     97.26       0.00       0.00       3.29      56.30       4.83      65.78        0.63   437.73   0.676
  sub15                     97.26       0.00       0.00       6.06      38.86      13.87      59.59        1.03   646.47   0.613
  sub16                     97.26       0.00       0.00       5.74      41.03      16.97      63.64        0.67   456.44   0.654
  sub17                     97.26       0.00       0.00       7.73      32.48      12.90      55.27        0.47   307.13   0.568
  sub18                     97.26       0.00       0.00       2.76      59.04       5.06      67.80        0.54   399.50   0.697
  sub19                     97.26       0.00       0.00       7.65      32.09      12.17      54.01        0.17   110.81   0.555
  sub20                     97.26       0.00       0.00       3.64      54.68       4.69      64.66        0.45   323.31   0.665
  sub21                     97.26       0.00       0.00       3.83      56.41       6.64      68.14        0.35   253.58   0.701
  sub22                     97.26       0.00       0.00       5.17      44.00      26.48      72.58        4.59  2747.49   0.746
  sub23                     97.26       0.00       0.00       5.07      37.06      18.01      59.09        2.82  1846.79   0.608
  sub24                     97.26       0.00       0.00       4.57      51.44       7.21      64.83        2.32  1670.41   0.667
  sub25                     97.26       0.00       0.00       5.43      44.85       2.93      56.33        0.73   550.27   0.579
  sub26                     97.26       0.00       0.00       6.91      35.47       9.63      54.43        0.78   582.37   0.560
  sub27                     97.26       0.00       0.00       4.13      51.19       4.39      61.71        0.89   611.97   0.634
  sub28                     97.26       0.00       0.00       4.04      51.01       3.85      60.99        0.96   653.41   0.627
  sub29                     97.26       0.00       0.00       5.57      42.05       3.18      53.93        0.87   533.09   0.555
  sub30                     97.26       0.00       0.00       4.49      50.53       3.81      61.22        1.38  1012.53   0.629
  sub31                     97.26       0.00       0.00       6.17      49.13       8.66      66.49        1.41  1024.11   0.684
  sub32                     97.26       0.00       0.00       5.22      47.06       3.55      58.76        1.17   811.78   0.604
  sub33                     97.26       0.00       0.00       4.61      51.45       6.63      64.54        1.18   869.98   0.664
  sub34                     97.26       0.00       0.00       6.72      29.62      24.71      59.62        1.33   899.22   0.613
  sub35                     97.26       0.00       0.00       4.18      56.03       4.22      66.63        0.23   192.84   0.685
  sub36                     97.26       0.00       0.00       6.33      36.69       8.89      54.09        0.47   351.24   0.556
  sub37                     97.26       0.00       0.00       5.72      36.81      19.99      61.64        0.47   357.14   0.634
  sub38                     97.26       0.00       0.00       6.46      35.38      16.28      58.67        1.11   859.33   0.603
  sub39                     97.26       0.00       0.00       4.91      46.86       3.53      58.03        0.62   481.36   0.597
  sub40                     97.26       0.00       0.00       3.45      55.33       4.17      64.57        0.75   609.82   0.664
  sub41                     97.26       0.00       0.00       4.02      50.84       8.34      64.18        1.23   962.42   0.660
  sub42                     97.26       0.00       0.00       2.93      57.37       4.91      66.32        0.67   539.84   0.682
  sub43                     97.26       0.00       0.00       3.91      54.32      27.59      81.91        0.67   466.77   0.842
  sub44                     97.26       0.00       0.00       6.08      43.98       2.88      56.65        0.64   420.01   0.582
  sub45                     97.26       0.00       0.00       6.85      36.56       6.43      53.06        0.97   640.25   0.546
  sub46                     97.26       0.00       0.00       6.49      23.68      32.96      59.27        0.41   259.93   0.609
  sub47                     97.26       0.00       0.00       6.64      40.67       3.07      54.37        0.42   277.38   0.559
  sub48                     97.26       0.00       0.00       2.58      59.15       5.07      67.60        0.52   378.00   0.695
  sub49                     97.26       0.00       0.00       5.42      45.60       3.44      57.53        0.53   354.97   0.592
  sub50                     97.26       0.00       0.00       4.46      49.20       3.71      59.75        0.42   290.34   0.614
  sub51                     97.26       0.00       0.00       2.79      57.56       4.34      65.81        0.31   230.23   0.677
  sub52                     97.26       0.00       0.00       5.58      48.28       3.16      60.29        0.65   437.63   0.620
  sub53                     97.26       0.00       0.00       4.73      50.54       3.81      61.66        0.62   437.93   0.634
  sub54                     97.26       0.00       0.00       6.17      40.94       2.68      53.51        0.32   203.48   0.550
  sub55                     97.26       0.00       0.00       3.20      55.68       4.20      64.51        0.51   354.78   0.663
  sub56                     97.26       0.00       0.00       3.09      61.28      12.03      75.91        1.08   661.31   0.780
  sub57                     97.26       0.00       0.00       3.24      63.84      23.08      86.92        0.56   343.25   0.894
  sub58                     97.26       0.00       0.00       7.56      17.86      35.84      56.50        2.09   953.40   0.581
  sub59                     97.26       0.00       0.00       7.74      13.86      32.19      49.27        1.13   449.10   0.507
  sub60                     97.26       0.00       0.00       3.41      54.99       6.47      65.95        0.87   622.17   0.678
  sub61                     97.26       0.00       0.00       5.30      46.26       8.13      61.63        1.13   789.54   0.634
  sub62                     97.26       0.00       0.00       4.39      49.54       3.74      60.02        1.64  1097.54   0.617
  sub67                     97.26       0.00       0.00       6.92      39.24       2.96      53.31        0.99   630.97   0.548
  sub68                     97.26       0.00       0.00       3.65      55.60       7.77      67.94        1.87  1295.88   0.698
  sub71                     97.26       0.00       0.00       3.10      54.12       4.09      62.72        1.64  1047.15   0.645
  sub72                     97.26       0.00       0.00       4.79      50.40       3.31      61.23        0.84   495.42   0.630
  sub73                     97.26       0.00       0.00       2.11      65.88      15.00      80.88        0.08    63.53   0.832
  sub74                     97.26       0.00       0.00       2.99      52.59      20.97      73.56        0.12    91.81   0.756
  sub75                     97.26       0.00       0.00       3.10      52.76      19.25      72.68        0.16   127.80   0.747
  sub76                     97.26       0.00       0.00       3.71      58.11      10.96      73.00        0.18   137.02   0.751
  sub77                     97.26       0.00       0.00       3.02      60.08      10.59      73.45        0.12    93.14   0.755
  sub78                     97.26       0.00       0.00       7.72      35.82       4.62      52.52        0.14    97.34   0.540
  sub79                     97.26       0.00       0.00       5.53      52.99      14.22      73.51        0.19   134.62   0.756
  sub80                     97.26       0.00       0.00       3.98      51.47      21.43      74.66        0.22   164.11   0.768
  sub81                     97.26       0.00       0.00       4.61      48.80      23.97      74.94        0.23   163.53   0.770
  sub82                     97.26       0.00       0.00       4.64      45.93      22.69      71.07        0.21   156.40   0.731
  sub83                     97.26       0.00       0.00       4.94      43.23      22.36      68.66        0.23   170.79   0.706
  sub84                     97.26       0.00       0.00       4.50      44.13      19.91      66.90        0.36   257.62   0.688
  sub85                     97.26       0.00       0.00       7.16      45.42      12.21      67.60        0.30   203.52   0.695
  sub86                     97.26       0.00       0.00       3.84      56.07      16.69      75.52        0.36   265.91   0.776
  sub87                     97.26       0.00       0.00       3.65      59.52      26.84      86.36        0.26   189.39   0.888
  sub88                     97.26       0.00       0.00       3.51      59.70      25.84      85.53        0.26   193.62   0.879
  sub89                     97.26       0.00       0.00       3.05      58.69      22.38      81.07        0.22   168.12   0.834
  sub90                     97.26       0.00       0.00       2.66      63.08      19.83      82.92        0.20   158.17   0.853
  sub91                     97.26       0.00       0.00       2.68      63.37      20.03      83.40        0.15   123.75   0.857
  sub92                     97.26       0.00       0.00       3.24      62.31      23.92      86.23        0.13   108.77   0.887
  sub93                     97.26       0.00       0.00       3.24      62.93      24.17      87.11        0.16   133.61   0.896
  sub94                     97.26       0.00       0.00       3.25      63.27      24.19      87.46        0.19   152.33   0.899
  sub95                     97.26       0.00       0.00       3.04      63.17      22.03      85.21        0.13   106.17   0.876
  sub96                     97.26       0.00       0.00       2.35      69.64      16.90      86.55        0.16   140.88   0.890
  sub97                     97.26       0.00       0.00       6.14      28.06      37.40      66.73        0.16   130.80   0.686
  sub98                     97.26       0.00       0.00       6.66      20.35      43.27      64.07        0.21   138.96   0.659
  sub99                     97.26       0.00       0.00       6.92      14.93      44.73      59.66        0.21   114.45   0.613
  sub100                    97.26       0.00       0.00       6.91      14.87      43.12      57.99        0.20    99.17   0.596
  sub101                    97.26       0.00       0.00       6.86      14.67      42.45      57.12        0.19    93.50   0.587
  sub102                    97.26       0.00       0.00       6.63      16.73      39.71      56.45        0.17    79.31   0.580
  sub103                    97.26       0.00       0.00       6.86      15.63      40.69      56.32        0.27   118.57   0.579
  sub104                    97.26       0.00       0.00       6.80      15.40      39.86      55.26        0.29   127.06   0.568
  sub105                    97.26       0.00       0.00       8.52      18.04      52.83      70.87        0.40   157.92   0.729
  sub106                    97.26       0.00       0.00       6.89      14.75      41.75      56.50        0.29   132.88   0.581
  sub107                    97.26       0.00       0.00       7.21      12.96      42.72      56.31        0.40   192.81   0.579
  sub108                    97.26       0.00       0.00       7.24      12.37      45.13      57.97        0.54   296.48   0.596
  sub109                    97.26       0.00       0.00       6.39      19.80      29.04      51.69        0.74   475.67   0.531
  sub110                    97.26       0.00       0.00       5.69      43.65       8.23      59.61        1.25   886.99   0.613
  sub111                    97.26       0.00       0.00       5.80      40.44      12.11      59.44        0.51   362.72   0.611
  sub112                    97.26       0.00       0.00       4.55      48.75      11.09      64.99        0.51   378.24   0.668
  sub113                    97.26       0.00       0.00       2.36      56.99       7.99      67.23        0.46   356.33   0.691
  sub114                    97.26       0.00       0.00       2.33      57.83       7.45      67.62        0.45   343.62   0.695
  sub115                    97.26       0.00       0.00       3.45      55.10       6.49      66.10        0.49   362.92   0.680
  sub116                    97.26       0.00       0.00       6.34      37.33      20.74      63.62        0.12    79.43   0.654
  sub117                    97.26       0.00       0.00       6.70      33.56      19.57      59.58        0.27   185.93   0.613
  

  ***********************
  LID Performance Summary
  ***********************

  --------------------------------------------------------------------------------------------------------------------
                                         Total      Evap     Infil   Surface    Drain    Initial     Final  Continuity
                                        Inflow      Loss      Loss   Outflow   Outflow   Storage   Storage       Error
  Subcatchment      LID Control             mm        mm        mm        mm        mm        mm        mm           %
  --------------------------------------------------------------------------------------------------------------------
  sub1              BioRententionCell     97.26      0.00      2.89      0.00      0.00     23.50    117.94       -0.05
  sub1              GreenRoof            97.26      0.00      0.00      0.00      0.00      7.05    104.31       -0.00
  sub1              PermeablePavement     97.26      0.00     20.50      0.00     36.91      0.00     40.42       -0.59
  sub2              BioRententionCell     97.26      0.00      2.89      0.00      0.00     23.50    117.94       -0.05
  sub2              GreenRoof            97.26      0.00      0.00      0.00      0.00      7.05    104.31       -0.00
  sub2              PermeablePavement     97.26      0.00     20.50      0.00     36.91      0.00     40.42       -0.59
  sub3              BioRententionCell     97.26      0.00      2.89      0.00      0.00     23.50    117.94       -0.05
  sub3              GreenRoof            97.26      0.00      0.00      0.00      0.00      7.05    104.31       -0.00
  sub3              PermeablePavement     97.26      0.00     20.50      0.00     36.91      0.00     40.42       -0.59
  sub4              BioRententionCell     97.26      0.00      2.89      0.00      0.00     23.50    117.94       -0.05
  sub4              GreenRoof            97.26      0.00      0.00      0.00      0.00      7.05    104.31       -0.00
  sub4              PermeablePavement     97.26      0.00     20.50      0.00     36.91      0.00     40.42       -0.59
  sub5              BioRententionCell     97.26      0.00      2.89      0.00      0.00     23.50    117.94       -0.05
  sub5              GreenRoof            97.26      0.00      0.00      0.00      0.00      7.05    104.31       -0.00
  sub5              PermeablePavement     97.26      0.00     20.50      0.00     36.91      0.00     40.42       -0.59
  sub6              BioRententionCell     97.26      0.00      2.89      0.00      0.00     23.50    117.94       -0.05
  sub6              GreenRoof            97.26      0.00      0.00      0.00      0.00      7.05    104.31       -0.00
  sub6              PermeablePavement     97.26      0.00     20.50      0.00     36.91      0.00     40.42       -0.59
  sub7              BioRententionCell     97.26      0.00      2.89      0.00      0.00     23.50    117.94       -0.05
  sub7              GreenRoof            97.26      0.00      0.00      0.00      0.00      7.05    104.31       -0.00
  sub7              PermeablePavement     97.26      0.00     20.50      0.00     36.91      0.00     40.42       -0.59
  sub8              BioRententionCell     97.26      0.00      2.89      0.00      0.00     23.50    117.94       -0.05
  sub8              GreenRoof            97.26      0.00      0.00      0.00      0.00      7.05    104.31       -0.00
  sub8              PermeablePavement     97.26      0.00     20.50      0.00     36.91      0.00     40.42       -0.59
  sub9              BioRententionCell     97.26      0.00      2.89      0.00      0.00     23.50    117.94       -0.05
  sub9              GreenRoof            97.26      0.00      0.00      0.00      0.00      7.05    104.31       -0.00
  sub9              PermeablePavement     97.26      0.00     20.50      0.00     36.91      0.00     40.42       -0.59
  sub10             BioRententionCell     97.26      0.00      2.89      0.00      0.00     23.50    117.94       -0.05
  sub10             GreenRoof            97.26      0.00      0.00      0.00      0.00      7.05    104.31       -0.00
  sub10             PermeablePavement     97.26      0.00     20.50      0.00     36.91      0.00     40.42       -0.59
  sub11             BioRententionCell     97.26      0.00      2.89      0.00      0.00     23.50    117.94       -0.05
  sub11             GreenRoof            97.26      0.00      0.00      0.00      0.00      7.05    104.31       -0.00
  sub11             PermeablePavement     97.26      0.00     20.50      0.00     36.91      0.00     40.42       -0.59
  sub12             BioRententionCell     97.26      0.00      2.89      0.00      0.00     23.50    117.94       -0.05
  sub12             GreenRoof            97.26      0.00      0.00      0.00      0.00      7.05    104.31       -0.00
  sub12             PermeablePavement     97.26      0.00     20.50      0.00     36.91      0.00     40.42       -0.59
  sub13             BioRententionCell     97.26      0.00      2.89      0.00      0.00     23.50    117.94       -0.05
  sub13             PermeablePavement     97.26      0.00     20.50      0.00     36.91      0.00     40.42       -0.59
  sub14             BioRententionCell     97.26      0.00      2.89      0.00      0.00     23.50    117.94       -0.05
  sub14             GreenRoof            97.26      0.00      0.00      0.00      0.00      7.05    104.31       -0.00
  sub14             PermeablePavement     97.26      0.00     20.50      0.00     36.91      0.00     40.42       -0.59
  sub15             BioRententionCell     97.26      0.00      2.89      0.00      0.00     23.50    117.94       -0.05
  sub15             GreenRoof            97.26      0.00      0.00      0.00      0.00      7.05    104.31       -0.00
  sub15             PermeablePavement     97.26      0.00     20.50      0.00     36.91      0.00     40.42       -0.59
  sub16             BioRententionCell     97.26      0.00      2.89      0.00      0.00     23.50    117.94       -0.05
  sub16             GreenRoof            97.26      0.00      0.00      0.00      0.00      7.05    104.31       -0.00
  sub16             PermeablePavement     97.26      0.00     20.50      0.00     36.91      0.00     40.42       -0.59
  sub17             BioRententionCell     97.26      0.00      2.89      0.00      0.00     23.50    117.94       -0.05
  sub17             GreenRoof            97.26      0.00      0.00      0.00      0.00      7.05    104.31       -0.00
  sub17             PermeablePavement     97.26      0.00     20.50      0.00     36.91      0.00     40.42       -0.59
  sub18             BioRententionCell     97.26      0.00      2.89      0.00      0.00     23.50    117.94       -0.05
  sub18             GreenRoof            97.26      0.00      0.00      0.00      0.00      7.05    104.31       -0.00
  sub18             PermeablePavement     97.26      0.00     20.50      0.00     36.91      0.00     40.42       -0.59
  sub19             BioRententionCell     97.26      0.00      2.89      0.00      0.00     23.50    117.94       -0.05
  sub19             GreenRoof            97.26      0.00      0.00      0.00      0.00      7.05    104.31       -0.00
  sub19             PermeablePavement     97.26      0.00     20.50      0.00     36.91      0.00     40.42       -0.59
  sub20             BioRententionCell     97.26      0.00      2.89      0.00      0.00     23.50    117.94       -0.05
  sub20             GreenRoof            97.26      0.00      0.00      0.00      0.00      7.05    104.31       -0.00
  sub20             PermeablePavement     97.26      0.00     20.50      0.00     36.91      0.00     40.42       -0.59
  sub21             BioRententionCell     97.26      0.00      2.89      0.00      0.00     23.50    117.94       -0.05
  sub21             GreenRoof            97.26      0.00      0.00      0.00      0.00      7.05    104.31       -0.00
  sub21             PermeablePavement     97.26      0.00     20.50      0.00     36.91      0.00     40.42       -0.59
  sub22             BioRententionCell     97.26      0.00      2.89      0.00      0.00     23.50    117.94       -0.05
  sub22             GreenRoof            97.26      0.00      0.00      0.00      0.00      7.05    104.31       -0.00
  sub22             PermeablePavement     97.26      0.00     20.50      0.00     36.91      0.00     40.42       -0.59
  sub23             BioRententionCell     97.26      0.00      2.89      0.00      0.00     23.50    117.94       -0.05
  sub23             GreenRoof            97.26      0.00      0.00      0.00      0.00      7.05    104.31       -0.00
  sub23             PermeablePavement     97.26      0.00     20.50      0.00     36.91      0.00     40.42       -0.59
  sub24             BioRententionCell     97.26      0.00      2.89      0.00      0.00     23.50    117.94       -0.05
  sub24             GreenRoof            97.26      0.00      0.00      0.00      0.00      7.05    104.31       -0.00
  sub24             PermeablePavement     97.26      0.00     20.50      0.00     36.91      0.00     40.42       -0.59
  sub25             BioRententionCell     97.26      0.00      2.89      0.00      0.00     23.50    117.94       -0.05
  sub25             GreenRoof            97.26      0.00      0.00      0.00      0.00      7.05    104.31       -0.00
  sub25             PermeablePavement     97.26      0.00     20.50      0.00     36.91      0.00     40.42       -0.59
  sub26             BioRententionCell     97.26      0.00      2.89      0.00      0.00     23.50    117.94       -0.05
  sub26             GreenRoof            97.26      0.00      0.00      0.00      0.00      7.05    104.31       -0.00
  sub26             PermeablePavement     97.26      0.00     20.50      0.00     36.91      0.00     40.42       -0.59
  sub27             BioRententionCell     97.26      0.00      2.89      0.00      0.00     23.50    117.94       -0.05
  sub27             GreenRoof            97.26      0.00      0.00      0.00      0.00      7.05    104.31       -0.00
  sub27             PermeablePavement     97.26      0.00     20.50      0.00     36.91      0.00     40.42       -0.59
  sub28             BioRententionCell     97.26      0.00      2.89      0.00      0.00     23.50    117.94       -0.05
  sub28             GreenRoof            97.26      0.00      0.00      0.00      0.00      7.05    104.31       -0.00
  sub28             PermeablePavement     97.26      0.00     20.50      0.00     36.91      0.00     40.42       -0.59
  sub29             BioRententionCell     97.26      0.00      2.89      0.00      0.00     23.50    117.94       -0.05
  sub29             GreenRoof            97.26      0.00      0.00      0.00      0.00      7.05    104.31       -0.00
  sub29             PermeablePavement     97.26      0.00     20.50      0.00     36.91      0.00     40.42       -0.59
  sub30             BioRententionCell     97.26      0.00      2.89      0.00      0.00     23.50    117.94       -0.05
  sub30             GreenRoof            97.26      0.00      0.00      0.00      0.00      7.05    104.31       -0.00
  sub30             PermeablePavement     97.26      0.00     20.50      0.00     36.91      0.00     40.42       -0.59
  sub31             BioRententionCell     97.26      0.00      2.89      0.00      0.00     23.50    117.94       -0.05
  sub31             GreenRoof            97.26      0.00      0.00      0.00      0.00      7.05    104.31       -0.00
  sub31             PermeablePavement     97.26      0.00     20.50      0.00     36.91      0.00     40.42       -0.59
  sub32             BioRententionCell     97.26      0.00      2.89      0.00      0.00     23.50    117.94       -0.05
  sub32             GreenRoof            97.26      0.00      0.00      0.00      0.00      7.05    104.31       -0.00
  sub32             PermeablePavement     97.26      0.00     20.50      0.00     36.91      0.00     40.42       -0.59
  sub33             BioRententionCell     97.26      0.00      2.89      0.00      0.00     23.50    117.94       -0.05
  sub33             GreenRoof            97.26      0.00      0.00      0.00      0.00      7.05    104.31       -0.00
  sub33             PermeablePavement     97.26      0.00     20.50      0.00     36.91      0.00     40.42       -0.59
  sub34             BioRententionCell     97.26      0.00      2.89      0.00      0.00     23.50    117.94       -0.05
  sub34             GreenRoof            97.26      0.00      0.00      0.00      0.00      7.05    104.31       -0.00
  sub34             PermeablePavement     97.26      0.00     20.50      0.00     36.91      0.00     40.42       -0.59
  sub35             BioRententionCell     97.26      0.00      2.89      0.00      0.00     23.50    117.94       -0.05
  sub35             GreenRoof            97.26      0.00      0.00      0.00      0.00      7.05    104.31       -0.00
  sub35             PermeablePavement     97.26      0.00     20.50      0.00     36.91      0.00     40.42       -0.59
  sub36             BioRententionCell     97.26      0.00      2.89      0.00      0.00     23.50    117.94       -0.05
  sub36             GreenRoof            97.26      0.00      0.00      0.00      0.00      7.05    104.31       -0.00
  sub36             PermeablePavement     97.26      0.00     20.50      0.00     36.91      0.00     40.42       -0.59
  sub37             BioRententionCell     97.26      0.00      2.89      0.00      0.00     23.50    117.94       -0.05
  sub37             GreenRoof            97.26      0.00      0.00      0.00      0.00      7.05    104.31       -0.00
  sub37             PermeablePavement     97.26      0.00     20.50      0.00     36.91      0.00     40.42       -0.59
  sub38             BioRententionCell     97.26      0.00      2.89      0.00      0.00     23.50    117.94       -0.05
  sub38             GreenRoof            97.26      0.00      0.00      0.00      0.00      7.05    104.31       -0.00
  sub38             PermeablePavement     97.26      0.00     20.50      0.00     36.91      0.00     40.42       -0.59
  sub39             BioRententionCell     97.26      0.00      2.89      0.00      0.00     23.50    117.94       -0.05
  sub39             GreenRoof            97.26      0.00      0.00      0.00      0.00      7.05    104.31       -0.00
  sub39             PermeablePavement     97.26      0.00     20.50      0.00     36.91      0.00     40.42       -0.59
  sub40             BioRententionCell     97.26      0.00      2.89      0.00      0.00     23.50    117.94       -0.05
  sub40             GreenRoof            97.26      0.00      0.00      0.00      0.00      7.05    104.31       -0.00
  sub40             PermeablePavement     97.26      0.00     20.50      0.00     36.91      0.00     40.42       -0.59
  sub41             BioRententionCell     97.26      0.00      2.89      0.00      0.00     23.50    117.94       -0.05
  sub41             GreenRoof            97.26      0.00      0.00      0.00      0.00      7.05    104.31       -0.00
  sub41             PermeablePavement     97.26      0.00     20.50      0.00     36.91      0.00     40.42       -0.59
  sub42             BioRententionCell     97.26      0.00      2.89      0.00      0.00     23.50    117.94       -0.05
  sub42             GreenRoof            97.26      0.00      0.00      0.00      0.00      7.05    104.31       -0.00
  sub42             PermeablePavement     97.26      0.00     20.50      0.00     36.91      0.00     40.42       -0.59
  sub43             BioRententionCell     97.26      0.00      2.89      0.00      0.00     23.50    117.94       -0.05
  sub44             BioRententionCell     97.26      0.00      2.89      0.00      0.00     23.50    117.94       -0.05
  sub44             GreenRoof            97.26      0.00      0.00      0.00      0.00      7.05    104.31       -0.00
  sub44             PermeablePavement     97.26      0.00     20.50      0.00     36.91      0.00     40.42       -0.59
  sub45             BioRententionCell     97.26      0.00      2.89      0.00      0.00     23.50    117.94       -0.05
  sub45             GreenRoof            97.26      0.00      0.00      0.00      0.00      7.05    104.31       -0.00
  sub45             PermeablePavement     97.26      0.00     20.50      0.00     36.91      0.00     40.42       -0.59
  sub46             BioRententionCell     97.26      0.00      2.89      0.00      0.00     23.50    117.94       -0.05
  sub46             GreenRoof            97.26      0.00      0.00      0.00      0.00      7.05    104.31       -0.00
  sub46             PermeablePavement     97.26      0.00     20.50      0.00     36.91      0.00     40.42       -0.59
  sub47             BioRententionCell     97.26      0.00      2.89      0.00      0.00     23.50    117.94       -0.05
  sub47             GreenRoof            97.26      0.00      0.00      0.00      0.00      7.05    104.31       -0.00
  sub47             PermeablePavement     97.26      0.00     20.50      0.00     36.91      0.00     40.42       -0.59
  sub48             BioRententionCell     97.26      0.00      2.89      0.00      0.00     23.50    117.94       -0.05
  sub48             GreenRoof            97.26      0.00      0.00      0.00      0.00      7.05    104.31       -0.00
  sub48             PermeablePavement     97.26      0.00     20.50      0.00     36.91      0.00     40.42       -0.59
  sub49             BioRententionCell     97.26      0.00      2.89      0.00      0.00     23.50    117.94       -0.05
  sub49             GreenRoof            97.26      0.00      0.00      0.00      0.00      7.05    104.31       -0.00
  sub49             PermeablePavement     97.26      0.00     20.50      0.00     36.91      0.00     40.42       -0.59
  sub50             BioRententionCell     97.26      0.00      2.89      0.00      0.00     23.50    117.94       -0.05
  sub50             GreenRoof            97.26      0.00      0.00      0.00      0.00      7.05    104.31       -0.00
  sub50             PermeablePavement     97.26      0.00     20.50      0.00     36.91      0.00     40.42       -0.59
  sub51             BioRententionCell     97.26      0.00      2.89      0.00      0.00     23.50    117.94       -0.05
  sub51             GreenRoof            97.26      0.00      0.00      0.00      0.00      7.05    104.31       -0.00
  sub51             PermeablePavement     97.26      0.00     20.50      0.00     36.91      0.00     40.42       -0.59
  sub52             BioRententionCell     97.26      0.00      2.89      0.00      0.00     23.50    117.94       -0.05
  sub52             GreenRoof            97.26      0.00      0.00      0.00      0.00      7.05    104.31       -0.00
  sub52             PermeablePavement     97.26      0.00     20.50      0.00     36.91      0.00     40.42       -0.59
  sub53             BioRententionCell     97.26      0.00      2.89      0.00      0.00     23.50    117.94       -0.05
  sub53             GreenRoof            97.26      0.00      0.00      0.00      0.00      7.05    104.31       -0.00
  sub53             PermeablePavement     97.26      0.00     20.50      0.00     36.91      0.00     40.42       -0.59
  sub54             BioRententionCell     97.26      0.00      2.89      0.00      0.00     23.50    117.94       -0.05
  sub54             GreenRoof            97.26      0.00      0.00      0.00      0.00      7.05    104.31       -0.00
  sub54             PermeablePavement     97.26      0.00     20.50      0.00     36.91      0.00     40.42       -0.59
  sub55             BioRententionCell     97.26      0.00      2.89      0.00      0.00     23.50    117.94       -0.05
  sub55             GreenRoof            97.26      0.00      0.00      0.00      0.00      7.05    104.31       -0.00
  sub55             PermeablePavement     97.26      0.00     20.50      0.00     36.91      0.00     40.42       -0.59
  sub56             BioRententionCell     97.26      0.00      2.89      0.00      0.00     23.50    117.94       -0.05
  sub56             GreenRoof            97.26      0.00      0.00      0.00      0.00      7.05    104.31       -0.00
  sub56             PermeablePavement     97.26      0.00     20.50      0.00     36.91      0.00     40.42       -0.59
  sub57             GreenRoof            97.26      0.00      0.00      0.00      0.00      7.05    104.31       -0.00
  sub58             BioRententionCell     97.26      0.00      2.89      0.00      0.00     23.50    117.94       -0.05
  sub58             PermeablePavement     97.26      0.00     20.50      0.00     36.91      0.00     40.42       -0.59
  sub59             BioRententionCell     97.26      0.00      2.89      0.00      0.00     23.50    117.94       -0.05
  sub59             PermeablePavement     97.26      0.00     20.50      0.00     36.91      0.00     40.42       -0.59
  sub60             BioRententionCell     97.26      0.00      2.89      0.00      0.00     23.50    117.94       -0.05
  sub60             GreenRoof            97.26      0.00      0.00      0.00      0.00      7.05    104.31       -0.00
  sub60             PermeablePavement     97.26      0.00     20.50      0.00     36.91      0.00     40.42       -0.59
  sub61             BioRententionCell     97.26      0.00      2.89      0.00      0.00     23.50    117.94       -0.05
  sub61             GreenRoof            97.26      0.00      0.00      0.00      0.00      7.05    104.31       -0.00
  sub61             PermeablePavement     97.26      0.00     20.50      0.00     36.91      0.00     40.42       -0.59
  sub62             BioRententionCell     97.26      0.00      2.89      0.00      0.00     23.50    117.94       -0.05
  sub62             GreenRoof            97.26      0.00      0.00      0.00      0.00      7.05    104.31       -0.00
  sub62             PermeablePavement     97.26      0.00     20.50      0.00     36.91      0.00     40.42       -0.59
  sub67             BioRententionCell     97.26      0.00      2.89      0.00      0.00     23.50    117.94       -0.05
  sub67             GreenRoof            97.26      0.00      0.00      0.00      0.00      7.05    104.31       -0.00
  sub67             PermeablePavement     97.26      0.00     20.50      0.00     36.91      0.00     40.42       -0.59
  sub68             BioRententionCell     97.26      0.00      2.89      0.00      0.00     23.50    117.94       -0.05
  sub68             GreenRoof            97.26      0.00      0.00      0.00      0.00      7.05    104.31       -0.00
  sub68             PermeablePavement     97.26      0.00     20.50      0.00     36.91      0.00     40.42       -0.59
  sub71             BioRententionCell     97.26      0.00      2.89      0.00      0.00     23.50    117.94       -0.05
  sub71             GreenRoof            97.26      0.00      0.00      0.00      0.00      7.05    104.31       -0.00
  sub71             PermeablePavement     97.26      0.00     20.50      0.00     36.91      0.00     40.42       -0.59
  sub72             BioRententionCell     97.26      0.00      2.89      0.00      0.00     23.50    117.94       -0.05
  sub72             GreenRoof            97.26      0.00      0.00      0.00      0.00      7.05    104.31       -0.00
  sub72             PermeablePavement     97.26      0.00     20.50      0.00     36.91      0.00     40.42       -0.59
  sub73             BioRententionCell     97.26      0.00      2.89      0.00      0.00     23.50    117.94       -0.05
  sub73             GreenRoof            97.26      0.00      0.00      0.00      0.00      7.05    104.31       -0.00
  sub74             BioRententionCell     97.26      0.00      2.89      0.00      0.00     23.50    117.94       -0.05
  sub74             GreenRoof            97.26      0.00      0.00      0.00      0.00      7.05    104.31       -0.00
  sub75             BioRententionCell     97.26      0.00      2.89      0.00      0.00     23.50    117.94       -0.05
  sub75             GreenRoof            97.26      0.00      0.00      0.00      0.00      7.05    104.31       -0.00
  sub75             PermeablePavement     97.26      0.00     20.50      0.00     36.91      0.00     40.42       -0.59
  sub76             BioRententionCell     97.26      0.00      2.89      0.00      0.00     23.50    117.94       -0.05
  sub76             GreenRoof            97.26      0.00      0.00      0.00      0.00      7.05    104.31       -0.00
  sub76             PermeablePavement     97.26      0.00     20.50      0.00     36.91      0.00     40.42       -0.59
  sub77             BioRententionCell     97.26      0.00      2.89      0.00      0.00     23.50    117.94       -0.05
  sub77             GreenRoof            97.26      0.00      0.00      0.00      0.00      7.05    104.31       -0.00
  sub77             PermeablePavement     97.26      0.00     20.50      0.00     36.91      0.00     40.42       -0.59
  sub78             BioRententionCell     97.26      0.00      2.89      0.00      0.00     23.50    117.94       -0.05
  sub78             GreenRoof            97.26      0.00      0.00      0.00      0.00      7.05    104.31       -0.00
  sub78             PermeablePavement     97.26      0.00     20.50      0.00     36.91      0.00     40.42       -0.59
  sub79             BioRententionCell     97.26      0.00      2.89      0.00      0.00     23.50    117.94       -0.05
  sub79             GreenRoof            97.26      0.00      0.00      0.00      0.00      7.05    104.31       -0.00
  sub79             PermeablePavement     97.26      0.00     20.50      0.00     36.91      0.00     40.42       -0.59
  sub80             BioRententionCell     97.26      0.00      2.89      0.00      0.00     23.50    117.94       -0.05
  sub80             GreenRoof            97.26      0.00      0.00      0.00      0.00      7.05    104.31       -0.00
  sub80             PermeablePavement     97.26      0.00     20.50      0.00     36.91      0.00     40.42       -0.59
  sub81             BioRententionCell     97.26      0.00      2.89      0.00      0.00     23.50    117.94       -0.05
  sub81             GreenRoof            97.26      0.00      0.00      0.00      0.00      7.05    104.31       -0.00
  sub81             PermeablePavement     97.26      0.00     20.50      0.00     36.91      0.00     40.42       -0.59
  sub82             BioRententionCell     97.26      0.00      2.89      0.00      0.00     23.50    117.94       -0.05
  sub82             GreenRoof            97.26      0.00      0.00      0.00      0.00      7.05    104.31       -0.00
  sub82             PermeablePavement     97.26      0.00     20.50      0.00     36.91      0.00     40.42       -0.59
  sub83             BioRententionCell     97.26      0.00      2.89      0.00      0.00     23.50    117.94       -0.05
  sub83             GreenRoof            97.26      0.00      0.00      0.00      0.00      7.05    104.31       -0.00
  sub83             PermeablePavement     97.26      0.00     20.50      0.00     36.91      0.00     40.42       -0.59
  sub84             BioRententionCell     97.26      0.00      2.89      0.00      0.00     23.50    117.94       -0.05
  sub84             GreenRoof            97.26      0.00      0.00      0.00      0.00      7.05    104.31       -0.00
  sub84             PermeablePavement     97.26      0.00     20.50      0.00     36.91      0.00     40.42       -0.59
  sub85             BioRententionCell     97.26      0.00      2.89      0.00      0.00     23.50    117.94       -0.05
  sub85             GreenRoof            97.26      0.00      0.00      0.00      0.00      7.05    104.31       -0.00
  sub85             PermeablePavement     97.26      0.00     20.50      0.00     36.91      0.00     40.42       -0.59
  sub86             BioRententionCell     97.26      0.00      2.89      0.00      0.00     23.50    117.94       -0.05
  sub86             GreenRoof            97.26      0.00      0.00      0.00      0.00      7.05    104.31       -0.00
  sub86             PermeablePavement     97.26      0.00     20.50      0.00     36.91      0.00     40.42       -0.59
  sub87             BioRententionCell     97.26      0.00      2.89      0.00      0.00     23.50    117.94       -0.05
  sub88             BioRententionCell     97.26      0.00      2.89      0.00      0.00     23.50    117.94       -0.05
  sub88             GreenRoof            97.26      0.00      0.00      0.00      0.00      7.05    104.31       -0.00
  sub89             BioRententionCell     97.26      0.00      2.89      0.00      0.00     23.50    117.94       -0.05
  sub89             GreenRoof            97.26      0.00      0.00      0.00      0.00      7.05    104.31       -0.00
  sub90             BioRententionCell     97.26      0.00      2.89      0.00      0.00     23.50    117.94       -0.05
  sub90             GreenRoof            97.26      0.00      0.00      0.00      0.00      7.05    104.31       -0.00
  sub91             BioRententionCell     97.26      0.00      2.89      0.00      0.00     23.50    117.94       -0.05
  sub91             GreenRoof            97.26      0.00      0.00      0.00      0.00      7.05    104.31       -0.00
  sub92             BioRententionCell     97.26      0.00      2.89      0.00      0.00     23.50    117.94       -0.05
  sub93             BioRententionCell     97.26      0.00      2.89      0.00      0.00     23.50    117.94       -0.05
  sub94             BioRententionCell     97.26      0.00      2.89      0.00      0.00     23.50    117.94       -0.05
  sub95             BioRententionCell     97.26      0.00      2.89      0.00      0.00     23.50    117.94       -0.05
  sub96             BioRententionCell     97.26      0.00      2.89      0.00      0.00     23.50    117.94       -0.05
  sub97             BioRententionCell     97.26      0.00      2.89      0.00      0.00     23.50    117.94       -0.05
  sub97             PermeablePavement     97.26      0.00     20.50      0.00     36.91      0.00     40.42       -0.59
  sub98             BioRententionCell     97.26      0.00      2.89      0.00      0.00     23.50    117.94       -0.05
  sub98             PermeablePavement     97.26      0.00     20.50      0.00     36.91      0.00     40.42       -0.59
  sub99             BioRententionCell     97.26      0.00      2.89      0.00      0.00     23.50    117.94       -0.05
  sub100            BioRententionCell     97.26      0.00      2.89      0.00      0.00     23.50    117.94       -0.05
  sub101            BioRententionCell     97.26      0.00      2.89      0.00      0.00     23.50    117.94       -0.05
  sub102            BioRententionCell     97.26      0.00      2.89      0.00      0.00     23.50    117.94       -0.05
  sub103            BioRententionCell     97.26      0.00      2.89      0.00      0.00     23.50    117.94       -0.05
  sub104            BioRententionCell     97.26      0.00      2.89      0.00      0.00     23.50    117.94       -0.05
  sub106            BioRententionCell     97.26      0.00      2.89      0.00      0.00     23.50    117.94       -0.05
  sub107            BioRententionCell     97.26      0.00      2.89      0.00      0.00     23.50    117.94       -0.05
  sub107            PermeablePavement     97.26      0.00     20.50      0.00     36.91      0.00     40.42       -0.59
  sub108            BioRententionCell     97.26      0.00      2.89      0.00      0.00     23.50    117.94       -0.05
  sub108            PermeablePavement     97.26      0.00     20.50      0.00     36.91      0.00     40.42       -0.59
  sub109            BioRententionCell     97.26      0.00      2.89      0.00      0.00     23.50    117.94       -0.05
  sub109            GreenRoof            97.26      0.00      0.00      0.00      0.00      7.05    104.31       -0.00
  sub109            PermeablePavement     97.26      0.00     20.50      0.00     36.91      0.00     40.42       -0.59
  sub110            BioRententionCell     97.26      0.00      2.89      0.00      0.00     23.50    117.94       -0.05
  sub110            GreenRoof            97.26      0.00      0.00      0.00      0.00      7.05    104.31       -0.00
  sub110            PermeablePavement     97.26      0.00     20.50      0.00     36.91      0.00     40.42       -0.59
  sub111            BioRententionCell     97.26      0.00      2.89      0.00      0.00     23.50    117.94       -0.05
  sub111            GreenRoof            97.26      0.00      0.00      0.00      0.00      7.05    104.31       -0.00
  sub111            PermeablePavement     97.26      0.00     20.50      0.00     36.91      0.00     40.42       -0.59
  sub112            BioRententionCell     97.26      0.00      2.89      0.00      0.00     23.50    117.94       -0.05
  sub112            GreenRoof            97.26      0.00      0.00      0.00      0.00      7.05    104.31       -0.00
  sub112            PermeablePavement     97.26      0.00     20.50      0.00     36.91      0.00     40.42       -0.59
  sub113            BioRententionCell     97.26      0.00      2.89      0.00      0.00     23.50    117.94       -0.05
  sub113            GreenRoof            97.26      0.00      0.00      0.00      0.00      7.05    104.31       -0.00
  sub113            PermeablePavement     97.26      0.00     20.50      0.00     36.91      0.00     40.42       -0.59
  sub114            BioRententionCell     97.26      0.00      2.89      0.00      0.00     23.50    117.94       -0.05
  sub114            GreenRoof            97.26      0.00      0.00      0.00      0.00      7.05    104.31       -0.00
  sub114            PermeablePavement     97.26      0.00     20.50      0.00     36.91      0.00     40.42       -0.59
  sub115            BioRententionCell     97.26      0.00      2.89      0.00      0.00     23.50    117.94       -0.05
  sub115            GreenRoof            97.26      0.00      0.00      0.00      0.00      7.05    104.31       -0.00
  sub115            PermeablePavement     97.26      0.00     20.50      0.00     36.91      0.00     40.42       -0.59
  sub116            BioRententionCell     97.26      0.00      2.89      0.00      0.00     23.50    117.94       -0.05
  sub116            GreenRoof            97.26      0.00      0.00      0.00      0.00      7.05    104.31       -0.00
  sub116            PermeablePavement     97.26      0.00     20.50      0.00     36.91      0.00     40.42       -0.59
  sub117            BioRententionCell     97.26      0.00      2.89      0.00      0.00     23.50    117.94       -0.05
  sub117            GreenRoof            97.26      0.00      0.00      0.00      0.00      7.05    104.31       -0.00
  sub117            PermeablePavement     97.26      0.00     20.50      0.00     36.91      0.00     40.42       -0.59
  
  ******************
  Node Depth Summary
  ******************
  
  ---------------------------------------------------------------------------------
                                 Average  Maximum  Maximum  Time of Max    Reported
                                   Depth    Depth      HGL   Occurrence   Max Depth
  Node                 Type       Meters   Meters   Meters  days hr:min      Meters
  ---------------------------------------------------------------------------------
  WS02001211           JUNCTION     0.96     2.48     7.32     0  00:49        1.78
  WS02001212           JUNCTION     0.73     2.14     7.21     0  00:49        1.55
  WS02001213           JUNCTION     0.96     2.38     7.14     0  00:49        1.85
  WS02003069           JUNCTION     0.92     1.69     6.27     0  00:53        1.68
  WS02003072           JUNCTION     1.00     1.58     5.96     0  00:53        1.58
  WS02003073           JUNCTION     1.22     1.70     5.77     0  00:53        1.70
  WS02003076           JUNCTION     0.97     1.36     5.58     0  00:53        1.35
  WS02003060           JUNCTION     0.80     1.71     6.65     0  00:49        1.67
  WS02003066           JUNCTION     0.48     1.16     6.72     0  00:53        1.16
  WS02003059           JUNCTION     1.03     2.10     6.79     0  00:49        1.92
  WS02003115           JUNCTION     1.94     2.76     9.62     0  00:37        2.73
  WS02003116           JUNCTION     2.08     3.03     9.74     0  00:26        2.93
  WS02003118           JUNCTION     2.06     2.90     9.52     0  00:26        2.90
  WS02003215           JUNCTION     1.96     2.80     9.66     0  00:37        2.80
  WS02003110           JUNCTION     1.59     2.30     9.55     0  00:50        2.29
  WS02003111           JUNCTION     1.71     2.35     9.44     0  00:36        2.35
  WS02005155           JUNCTION     1.56     2.35     9.66     0  00:51        2.35
  WS02005154           JUNCTION     1.33     2.17     9.80     0  00:51        2.15
  WS02005193           JUNCTION     1.38     3.22    11.04     0  00:47        2.96
  WS02005196           JUNCTION     1.36     3.31    11.16     0  00:47        2.93
  WS02003067           JUNCTION     0.80     1.48     6.80     0  00:53        1.48
  WS02004401           JUNCTION     1.42     2.49     8.49     0  00:51        2.46
  WS02004402           JUNCTION     1.41     2.51     8.47     0  00:51        2.48
  WS02004403           JUNCTION     1.40     2.51     8.44     0  00:51        2.48
  WS02004404           JUNCTION     1.44     2.57     8.42     0  00:51        2.54
  WS02004406           JUNCTION     1.38     2.52     8.35     0  00:51        2.50
  WS02004409           JUNCTION     1.15     2.30     8.07     0  00:51        2.29
  WS02004410           JUNCTION     1.05     2.10     7.82     0  00:51        2.09
  WS02004411           JUNCTION     0.98     1.88     7.56     0  00:53        1.87
  WS02004412           JUNCTION     0.89     1.64     7.28     0  00:53        1.63
  WS02004413           JUNCTION     0.94     1.55     7.02     0  00:52        1.54
  WS02004405           JUNCTION     1.42     2.55     8.40     0  00:51        2.52
  WS02006109           JUNCTION     1.91     2.64     9.26     0  00:45        2.64
  WS02006110           JUNCTION     1.72     2.49     9.07     0  00:52        2.48
  WS02006111           JUNCTION     1.12     2.00     8.70     0  00:53        1.99
  WS02006112           JUNCTION     1.73     2.68     8.56     0  00:00        2.68
  WS02006113           JUNCTION     1.20     2.00     8.89     0  00:50        1.99
  WS02006115           JUNCTION     1.39     2.40     8.54     0  00:51        2.38
  WS02006116           JUNCTION     1.44     2.48     8.52     0  00:51        2.46
  WS02006230           JUNCTION     2.00     2.65     9.39     0  00:41        2.65
  WS02006231           JUNCTION     1.60     2.19     9.31     0  01:30        2.19
  WS02006232           JUNCTION     1.64     2.18     9.22     0  00:41        2.18
  WS02006234           JUNCTION     1.48     1.96     9.12     0  00:39        1.96
  WS02006235           JUNCTION     1.46     1.93     9.10     0  01:19        1.93
  WS02006238           JUNCTION     1.47     1.93     9.08     0  01:21        1.93
  WS02006240           JUNCTION     1.26     1.63     8.92     0  01:16        1.62
  WS02006242           JUNCTION     1.24     1.55     8.82     0  00:33        1.55
  WS02006243           JUNCTION     1.09     1.37     8.79     0  00:33        1.37
  WS02006245           JUNCTION     1.02     1.27     8.76     0  00:33        1.27
  WS02006247           JUNCTION     1.00     1.23     8.73     0  01:24        1.22
  WS02006248           JUNCTION     0.91     1.10     8.69     0  00:31        1.10
  WS02006249           JUNCTION     0.91     1.09     8.69     0  00:28        1.09
  WS02006239           JUNCTION     1.37     1.79     9.00     0  01:15        1.78
  WS02006251           JUNCTION     1.33     2.21     9.88     0  00:47        2.16
  WS02006252           JUNCTION     0.92     1.50     9.74     0  00:47        1.50
  WS02006253           JUNCTION     1.55     3.23    10.87     0  00:47        3.13
  WS02006256           JUNCTION     1.86     2.35     9.28     0  00:16        2.35
  WS02004138           JUNCTION     0.12     0.14     7.39     0  00:33        0.14
  WS02004139           JUNCTION     0.89     2.44     7.35     0  00:49        1.71
  WS02004407           JUNCTION     0.78     2.07     8.38     0  00:51        1.96
  WS02006228           JUNCTION     2.12     3.03     9.68     0  00:49        3.02
  WS02006229           JUNCTION     2.22     3.23     9.92     0  00:50        3.22
  WS02006280           JUNCTION     0.93     1.75    10.02     0  00:53        1.74
  WS02006284           JUNCTION     1.10     1.95    10.35     0  00:49        1.94
  WS02006287           JUNCTION     0.84     1.74    10.70     0  00:49        1.73
  WS02003091           JUNCTION     2.78     4.43    10.23     0  00:00        3.91
  WS02003203           JUNCTION     2.73     3.83     9.82     0  00:00        3.83
  WS6145               JUNCTION     0.33     2.34    10.44     0  00:51        2.33
  WS6147               JUNCTION     0.26     2.26    10.54     0  00:51        2.17
  WS6150               JUNCTION     0.26     2.24    10.57     0  00:51        2.13
  WS6152               JUNCTION     0.27     2.20    10.54     0  00:51        2.14
  WS6155               JUNCTION     0.23     2.10    10.50     0  00:51        2.10
  WS6156               JUNCTION     0.22     2.05    10.52     0  00:51        2.05
  WS6136               JUNCTION     0.30     1.90    10.85     0  00:52        1.90
  WS6140               JUNCTION     0.37     2.46    10.40     0  00:53        2.45
  WS6142               JUNCTION     0.32     2.34    10.41     0  00:53        2.34
  WS6325               JUNCTION     0.59     2.74    10.39     0  00:53        2.73
  WS6327               JUNCTION     0.44     2.59    10.40     0  00:53        2.57
  WS6329               JUNCTION     0.39     2.53    10.41     0  00:53        2.51
  WS6332               JUNCTION     0.33     2.51    10.54     0  00:50        2.36
  WS6158               JUNCTION     0.20     2.05    10.59     0  00:51        2.05
  WS6335               JUNCTION     0.32     2.59    10.66     0  00:50        2.32
  WS6338               JUNCTION     0.27     2.55    10.75     0  00:50        2.21
  WS6340               JUNCTION     0.24     2.50    10.84     0  00:50        2.07
  WS6342               JUNCTION     0.18     2.50    11.10     0  00:50        1.81
  WS6135               JUNCTION     0.74     2.89    10.38     0  00:53        2.88
  WS6396               JUNCTION     0.46     2.02     9.57     0  00:53        2.01
  WS6399               JUNCTION     0.28     1.37     8.80     0  00:53        1.36
  WS02003082           JUNCTION     1.34     1.93     7.00     0  00:53        1.92
  WS02003077           JUNCTION     0.46     0.84     5.85     0  00:52        0.84
  WS02003080           JUNCTION     0.88     1.31     6.24     0  00:52        1.29
  WS02003083           JUNCTION     1.72     2.40     7.44     0  00:54        2.40
  WS02003084           JUNCTION     1.86     2.60     7.70     0  00:52        2.59
  WS02003085           JUNCTION     1.94     2.72     7.89     0  00:53        2.71
  WS02003086           JUNCTION     2.17     3.02     8.23     0  00:54        3.01
  WS02003087           JUNCTION     2.44     3.36     8.57     0  00:53        3.35
  WS02003088           JUNCTION     2.62     4.14     9.43     0  00:00        4.07
  WS02003089           JUNCTION     2.74     4.34     9.80     0  00:00        4.02
  WS02003090           JUNCTION     2.95     4.12     9.55     0  00:00        4.04
  WS02003081           JUNCTION     1.10     1.61     6.66     0  00:53        1.60
  WS02003122           JUNCTION     2.24     3.11     9.48     0  00:51        3.10
  WS02003187           JUNCTION     2.26     3.11     9.44     0  00:47        3.11
  WS02003188           JUNCTION     2.25     2.97     9.23     0  00:47        2.97
  WS02003190           JUNCTION     2.24     2.84     9.04     0  00:34        2.84
  WS02003193           JUNCTION     2.22     2.85     9.09     0  00:34        2.85
  WS02003195           JUNCTION     2.25     2.93     9.18     0  00:34        2.93
  WS02003196           JUNCTION     2.36     3.12     9.30     0  00:50        3.11
  WS02003198           JUNCTION     2.38     3.21     9.39     0  00:50        3.20
  WS02003200           JUNCTION     2.15     2.99     9.43     0  00:34        2.93
  WS02003201           JUNCTION     2.41     3.22     9.36     0  00:34        3.22
  WS02003202           JUNCTION     2.55     4.17    10.23     0  00:00        3.48
  WS02004041           JUNCTION     0.64     0.98     5.34     0  00:53        0.98
  WSA6400              JUNCTION     1.08     2.42     8.26     0  00:51        2.41
  WS6400               JUNCTION     0.43     1.69     8.35     0  00:53        1.68
  WSF208               JUNCTION     0.79     1.95     8.04     0  00:51        1.94
  WSF207               JUNCTION     0.69     1.70     7.83     0  00:51        1.68
  WSF206               JUNCTION     0.77     1.74     7.67     0  00:51        1.73
  WSF205               JUNCTION     0.71     1.61     7.52     0  00:53        1.60
  WSF204               JUNCTION     1.24     2.17     7.32     0  00:52        2.15
  WSF203               JUNCTION     0.62     1.36     7.07     0  00:52        1.35
  WSF202               JUNCTION     0.55     1.19     6.92     0  00:53        1.18
  WSF201               JUNCTION     0.46     1.04     6.76     0  00:53        1.03
  WSF200               JUNCTION     0.60     1.45     6.68     0  00:53        1.45
  HS02004901           JUNCTION     0.69     1.42    11.24     0  00:45        1.42
  HS02004881           JUNCTION     0.51     2.15    11.18     0  00:47        1.86
  HS02004876           JUNCTION     0.63     2.11    11.14     0  00:51        2.10
  HS02004870           JUNCTION     0.53     2.10    11.39     0  00:47        2.02
  HS02004862           JUNCTION     0.54     2.00    11.38     0  00:47        2.00
  HS02004856           JUNCTION     0.57     2.07    11.50     0  00:47        2.03
  HS02004852           JUNCTION     0.51     2.12    11.63     0  00:47        1.97
  HS02004848           JUNCTION     0.49     2.04    11.64     0  00:47        1.91
  HS02004842           JUNCTION     0.80     2.22    11.49     0  00:47        2.22
  HS02004837           JUNCTION     0.52     1.97    11.55     0  00:47        1.91
  HS02004830           JUNCTION     0.59     2.02    11.49     0  00:47        1.98
  HS02004824           JUNCTION     0.64     2.01    11.41     0  00:47        2.01
  HS02004817           JUNCTION     1.12     2.44    11.29     0  00:47        2.41
  HS02004807           JUNCTION     0.81     1.92    11.09     0  00:47        1.92
  HS02004802           JUNCTION     0.82     1.80    10.93     0  00:50        1.80
  HS02004799           JUNCTION     0.92     1.76    10.97     0  00:46        1.76
  HS02004792           JUNCTION     0.72     1.60    11.12     0  00:43        1.60
  HS02004788           JUNCTION     0.53     1.42    11.32     0  00:45        1.42
  HS02004785           JUNCTION     0.57     1.49    11.39     0  00:45        1.40
  HS02004777           JUNCTION     0.70     1.48    11.28     0  00:45        1.47
  HS02004770           JUNCTION     0.68     1.42    11.25     0  00:45        1.42
  HS02004480           JUNCTION     0.82     1.66    10.91     0  00:47        1.64
  HS02004479           JUNCTION     0.86     1.68    10.89     0  00:47        1.66
  HS02004478           JUNCTION     0.71     1.59    10.82     0  00:50        1.58
  HS02004053           JUNCTION     0.25     1.90    10.67     0  00:51        1.09
  HS02004052           JUNCTION     0.31     1.50    11.15     0  00:51        1.39
  HS02004049           JUNCTION     0.18     1.10    11.78     0  00:51        0.86
  HS02004048           JUNCTION     0.43     1.70    12.60     0  00:49        1.70
  HS02004046           JUNCTION     0.41     1.80    13.52     0  00:50        1.46
  HS02004043           JUNCTION     0.19     1.95    14.64     0  00:50        1.24
  HS02004041           JUNCTION     0.13     0.34    15.78     0  00:51        0.33
  HS02004038           JUNCTION     0.13     0.33    19.01     0  00:51        0.32
  HS02004036           JUNCTION     0.00     0.00    22.46     0  00:00        0.00
  HS02004034           JUNCTION     0.00     0.00    26.83     0  00:00        0.00
  HS02004028           JUNCTION     0.18     0.51    37.36     0  00:49        0.51
  HS02004027           JUNCTION     0.14     0.34    36.47     0  00:49        0.34
  HS02004026           JUNCTION     0.15     0.35    35.75     0  00:49        0.35
  HS02004024           JUNCTION     0.15     0.42    34.63     0  00:50        0.42
  HS02004022           JUNCTION     0.20     0.80    33.84     0  00:49        0.80
  HS02004021           JUNCTION     0.24     0.81    32.54     0  00:47        0.81
  HS02004019           JUNCTION     0.31     0.80    31.76     0  00:46        0.80
  HS02004018           JUNCTION     0.20     0.60    33.81     0  00:49        0.60
  HS02004017           JUNCTION     0.19     0.53    34.37     0  00:49        0.53
  HS02004013           JUNCTION     0.12     0.39    35.53     0  00:51        0.39
  HS02004010           JUNCTION     0.04     0.14    38.00     0  00:51        0.14
  HS02003174           JUNCTION     0.16     0.42     5.95     0  00:52        0.42
  HS02003171           JUNCTION     0.18     0.47     6.15     0  00:51        0.47
  HS02003170           JUNCTION     0.23     0.45     6.90     0  00:52        0.44
  HS02003168           JUNCTION     0.11     0.29     6.78     0  00:52        0.29
  HS02003166           JUNCTION     0.21     0.45     6.93     0  00:51        0.45
  HS02003162           JUNCTION     0.21     0.42    30.68     0  00:47        0.42
  HS02003160           JUNCTION     0.15     0.35    28.40     0  00:51        0.34
  HS02003150           JUNCTION     0.16     0.37    26.39     0  00:51        0.37
  HS02003148           JUNCTION     0.18     0.46    22.20     0  00:51        0.46
  HS02003145           JUNCTION     0.23     0.81    14.68     0  00:50        0.81
  HS02003143           JUNCTION     0.34     0.80    13.27     0  00:44        0.80
  HS02003138           JUNCTION     0.15     0.37     6.86     0  01:36        0.37
  HS02003136           JUNCTION     1.39     2.28    10.00     0  00:00        2.28
  HS02003125           JUNCTION     1.50     2.40     9.85     0  00:37        2.32
  HS02003122           JUNCTION     1.54     2.49     9.92     0  00:37        2.47
  HS02003119           JUNCTION     1.31     2.51    10.23     0  00:37        2.40
  HS02003116           JUNCTION     1.00     2.43    10.55     0  00:37        2.20
  HS02003111           JUNCTION     0.45     0.83     9.85     0  00:51        0.83
  HS02003108           JUNCTION     0.36     0.98    10.09     0  00:47        0.76
  HS02003100           JUNCTION     0.25     0.73     9.96     0  00:51        0.67
  HS02003088           JUNCTION     0.20     0.71    10.00     0  00:51        0.66
  HS02003084           JUNCTION     0.08     0.55     9.98     0  00:52        0.55
  HS02003079           JUNCTION     0.05     0.47     9.98     0  00:52        0.47
  HS02003077           JUNCTION     0.01     0.26    10.00     0  00:51        0.26
  HS02003065           JUNCTION     0.61     1.63    10.87     0  00:42        1.60
  HS02003056           JUNCTION     0.64     1.78    10.72     0  00:42        1.69
  HS02003053           JUNCTION     0.42     1.66    10.96     0  00:42        1.55
  HS02003042           JUNCTION     0.28     1.67    11.33     0  00:49        1.44
  HS02003039           JUNCTION     0.31     1.75    11.40     0  00:49        1.58
  HS02003036           JUNCTION     0.15     1.41    11.47     0  00:49        1.34
  HS02003028           JUNCTION     0.25     1.40    11.14     0  00:49        1.40
  HS02003021           JUNCTION     0.27     1.55    10.92     0  00:49        1.49
  HS02003018           JUNCTION     0.28     1.48    10.69     0  00:49        1.48
  HS02003017           JUNCTION     0.28     1.48    10.64     0  00:49        1.48
  HS02003013           JUNCTION     0.28     1.47    10.52     0  00:49        1.42
  HS02003010           JUNCTION     0.31     1.44    10.24     0  00:49        1.29
  HS02003007           JUNCTION     0.28     1.22     9.83     0  00:49        1.09
  HS02003004           JUNCTION     0.37     1.04     9.36     0  00:49        0.98
  HS02003001           JUNCTION     0.11     0.28     8.58     0  00:52        0.28
  YS02001738           JUNCTION     0.00     0.00     8.89     0  00:00        0.00
  YS02001739           JUNCTION     0.00     0.00     8.37     0  00:00        0.00
  YS02001742           JUNCTION     0.00     0.00     8.49     0  00:00        0.00
  YS02001745           JUNCTION     0.14     0.33     7.85     0  00:52        0.33
  YS02001748           JUNCTION     0.16     0.38     7.46     0  00:52        0.38
  YS02001751           JUNCTION     0.15     0.39     7.27     0  00:53        0.39
  YS02001754           JUNCTION     0.15     0.53     7.14     0  00:54        0.53
  YS02001762           JUNCTION     0.33     0.96     7.36     0  00:53        0.96
  YS02001765           JUNCTION     0.32     0.96     7.41     0  00:52        0.95
  YS02001767           JUNCTION     0.33     0.98     7.47     0  00:53        0.98
  YS02001770           JUNCTION     0.39     1.12     7.61     0  00:53        1.08
  YS02001774           JUNCTION     0.46     1.18     7.60     0  00:53        1.15
  YS02001779           JUNCTION     0.21     0.90     7.58     0  00:53        0.89
  YS02001882           JUNCTION     0.70     1.83     8.55     0  00:47        1.79
  YS02001884           JUNCTION     0.80     1.93     8.55     0  00:47        1.90
  YS02001759           JUNCTION     0.34     0.95     7.31     0  00:53        0.95
  YS02001887           JUNCTION     0.88     1.94     8.48     0  00:47        1.91
  YS02001890           JUNCTION     0.90     1.81     8.32     0  00:47        1.81
  YS02001898           JUNCTION     0.67     1.71     8.44     0  00:47        1.60
  YS02001901           JUNCTION     0.78     1.75     8.36     0  00:47        1.69
  YS02001904           JUNCTION     0.76     1.67     8.30     0  00:47        1.63
  YS02001907           JUNCTION     1.08     1.96     8.25     0  00:47        1.96
  YS02001910           JUNCTION     0.89     2.02     8.53     0  00:48        1.93
  YS02001915           JUNCTION     0.72     2.00     8.72     0  00:48        1.88
  YS02001918           JUNCTION     0.46     1.81     8.88     0  00:48        1.60
  YS02001920           JUNCTION     0.55     2.14     9.15     0  00:50        1.70
  YS02001923           JUNCTION     0.37     2.03     9.29     0  00:50        1.48
  YS02001926           JUNCTION     0.39     1.90     9.35     0  00:49        1.33
  YS02001929           JUNCTION     0.25     1.78     9.47     0  00:50        1.13
  YS02001932           JUNCTION     0.16     1.77     9.57     0  00:50        1.04
  YS02001935           JUNCTION     0.11     1.75     9.68     0  00:50        1.62
  YS02001757           JUNCTION     0.31     0.90     7.16     0  00:53        0.90
  YS02001895           JUNCTION     0.67     1.75     8.50     0  00:47        1.59
  YS02005679           JUNCTION     0.00     0.00    10.24     0  00:00        0.00
  YS02005559           JUNCTION     0.09     0.20    10.15     0  00:53        0.20
  YS02005651           JUNCTION     0.06     0.17    10.94     0  00:51        0.17
  YS02005670           JUNCTION     0.07     0.19    10.65     0  00:51        0.19
  YS02005547           JUNCTION     0.05     0.14    10.68     0  00:51        0.14
  YS02005549           JUNCTION     0.07     0.21    11.12     0  00:51        0.21
  YS02005550           JUNCTION     0.09     0.26    10.88     0  00:52        0.26
  YS02005551           JUNCTION     0.06     0.14    10.51     0  00:52        0.14
  YS02005553           JUNCTION     0.11     0.27    10.63     0  00:53        0.27
  YS02005554           JUNCTION     0.06     0.13    10.37     0  00:52        0.13
  YS02005556           JUNCTION     0.12     0.26    10.31     0  00:52        0.26
  YS02005557           JUNCTION     0.06     0.14    10.10     0  00:52        0.13
  YS02005560           JUNCTION     0.07     0.15     9.89     0  00:53        0.15
  YS02005562           JUNCTION     0.11     0.24     9.98     0  00:53        0.24
  YS02005563           JUNCTION     0.06     0.13     9.80     0  00:53        0.13
  YS02005565           JUNCTION     0.10     0.20     9.91     0  00:53        0.20
  YS02005566           JUNCTION     0.08     0.17     9.56     0  00:53        0.17
  YS02005568           JUNCTION     0.12     0.27     9.77     0  00:52        0.27
  YS02005569           JUNCTION     0.09     0.19     9.52     0  00:52        0.19
  YS02005598           JUNCTION     0.19     1.07    10.91     0  00:48        1.07
  YS02005600           JUNCTION     0.18     1.02    10.68     0  00:48        1.02
  YS02005602           JUNCTION     0.41     2.15    10.43     0  00:49        2.15
  YS02005603           JUNCTION     0.14     1.37     9.49     0  00:49        0.58
  YS02005609           JUNCTION     0.07     0.19     9.08     0  00:52        0.19
  YS02005653           JUNCTION     0.11     0.77    11.74     0  00:50        0.65
  YS02005654           JUNCTION     0.12     0.62    11.38     0  00:50        0.52
  YS02005655           JUNCTION     0.05     0.14    10.77     0  00:52        0.14
  YS02005595           JUNCTION     0.25     1.36    11.04     0  00:47        1.36
  YS02005658           JUNCTION     0.10     0.46    11.36     0  00:51        0.38
  YS02005659           JUNCTION     0.06     0.14    10.80     0  00:52        0.14
  YS02005661           JUNCTION     0.13     0.55    11.26     0  00:51        0.54
  YS02005662           JUNCTION     0.05     0.13    10.75     0  00:52        0.13
  YS02005664           JUNCTION     0.13     0.46    11.04     0  00:51        0.45
  YS02005665           JUNCTION     0.05     0.11    10.68     0  00:52        0.11
  YS02005668           JUNCTION     0.04     0.10    10.27     0  00:51        0.10
  YS02005667           JUNCTION     0.25     0.49    10.51     0  00:51        0.48
  YS02005571           JUNCTION     0.18     0.51     9.99     0  00:53        0.50
  YS02005572           JUNCTION     0.12     0.26     9.62     0  00:53        0.26
  YS02005576           JUNCTION     0.10     0.24     9.99     0  00:53        0.24
  YS02005577           JUNCTION     0.09     0.21     9.69     0  00:53        0.21
  YS02005579           JUNCTION     0.24     1.12    10.74     0  00:50        1.12
  YS02005580           JUNCTION     0.15     0.91    10.44     0  00:50        0.70
  YS02005582           JUNCTION     0.28     0.86    10.94     0  00:49        0.86
  YS02005583           JUNCTION     0.14     0.81    10.80     0  00:49        0.41
  YS02005612           JUNCTION     0.37     1.15     9.27     0  00:52        1.15
  YS02005615           JUNCTION     0.06     0.15    11.64     0  00:51        0.15
  YS02005616           JUNCTION     0.05     0.12    10.94     0  00:51        0.12
  YS02005618           JUNCTION     0.08     0.26    11.11     0  00:51        0.26
  YS02005619           JUNCTION     0.05     0.14    10.69     0  00:51        0.14
  YS02005621           JUNCTION     0.09     0.30    11.41     0  00:51        0.30
  YS02005622           JUNCTION     0.04     0.12    11.08     0  00:51        0.12
  YS02005625           JUNCTION     0.04     0.10    11.12     0  00:51        0.10
  YS02005627           JUNCTION     0.11     0.43    11.36     0  00:50        0.40
  YS02005628           JUNCTION     0.04     0.11    11.01     0  00:51        0.11
  YS02005630           JUNCTION     0.10     0.56    11.63     0  00:50        0.40
  YS02005631           JUNCTION     0.05     0.13    11.00     0  00:52        0.13
  YS02005633           JUNCTION     0.09     0.47    11.59     0  00:51        0.36
  YS02005634           JUNCTION     0.05     0.14    10.98     0  00:51        0.14
  YS02005636           JUNCTION     0.12     0.58    11.58     0  00:51        0.58
  YS02005637           JUNCTION     0.06     0.17    10.93     0  00:52        0.17
[...]
  WS02003091WS02003090        1.70      1.70      1.75      0.01         0.01
  WS02003090WS02003089        1.72      1.72      1.74      1.81         0.01
  WS02003089WS02003088        1.71      1.73      1.74      1.64         1.63
  WS02003088WS02003087        1.74      1.76      1.74      1.81         1.74
  WS02003087WS02003086        1.68      1.68      1.76      1.73         0.01
  WS02003086WS02003085        1.68      1.68      1.72      1.79         0.01
  WS02003085WS02003084        1.68      1.69      1.69      1.70         1.67
  WS02003084WS02003083        1.68      1.70      1.68      1.88         1.68
  WS02003083WS02003082        1.67      1.67      1.70      1.79         0.01
  WS02003082WS02003081        1.65      1.66      1.65      1.78         1.65
  WS02003081WS02003080        1.65      1.66      1.65      1.67         1.65
  WS02003080WS02003077        0.51      0.51      1.66      1.66         0.01
  WS02003073WS02003076        0.62      0.62      1.42      0.18         0.01
  HS02004901HS02004770        0.65      0.65      0.66      0.01         0.01
  HS02004876HS02004881        0.66      0.68      0.66      1.60         0.66
  HS02004870HS02004876        0.59      0.59      0.68      0.01         0.01
  HS02004049HS02004052        0.09      0.09      0.12      0.01         0.01
  HS02004048HS02004049        0.19      0.29      0.19      0.35         0.19
  HS02004046HS02004048        0.11      0.11      0.29      0.01         0.01
  HS02004043HS02004046        0.08      0.08      0.14      0.01         0.01
  HS02004041HS02004043        0.01      0.01      0.08      0.01         0.01
  HS02004028HS02004027        0.01      0.08      0.01      0.10         0.01
  HS02003143HS02003065        0.47      0.47      0.68      0.01         0.01
  HS02004842HS02004848        0.51      0.51      0.72      0.01         0.01
  HS02004837HS02004842        0.54      0.54      0.72      0.01         0.01
  HS02004830HS02004837        0.54      0.54      0.60      0.01         0.01
  HS02004824HS02004830        0.60      0.60      0.65      0.01         0.01
  HS02004817HS02004824        0.65      0.65      1.53      0.01         0.01
  HS02004770HS02004777        0.65      0.65      0.67      0.01         0.01
  HS02004799HS02004480        0.83      0.83      0.93      0.95         0.01
  HS02004792HS02004799        0.77      0.77      0.93      0.01         0.01
  HS02004788HS02004792        0.60      0.60      0.77      0.01         0.01
  HS02004785HS02004788        0.60      0.61      0.60      1.52         0.55
  HS02004777HS02004785        0.61      0.61      0.67      0.01         0.01
  HS02004480HS02004478        0.75      0.83      0.75      1.69         0.75
  HS02004479HS02004480        0.84      0.84      0.87      0.01         0.01
  HS02003013HS02003010        0.26      0.26      0.29      0.14         0.14
  HS02003010HS02003007        0.24      0.24      0.25      0.28         0.24
  HS02003007HS02003004        0.25      0.25      0.34      0.11         0.11
  HS02003004HS02003001        0.01      0.34      0.01      0.96         0.01
  HS02003065HS02003056        0.67      0.67      0.83      0.01         0.01
  HS02003042HS02003053        0.21      0.21      0.62      0.01         0.01
  HS02003028HS02003021        0.14      0.14      0.20      0.01         0.01
  HS02003021HS02003018        0.23      0.23      0.24      0.04         0.04
  HS02003018HS02003017        0.24      0.24      0.25      0.08         0.07
  HS02003017HS02003013        0.25      0.25      0.26      0.19         0.17
  HS02004862HS02004870        0.56      0.56      0.59      0.22         0.21
  HS02004848HS02004852        0.51      0.51      0.54      0.03         0.01
  HS02004856HS02004862        0.52      0.52      0.56      0.01         0.01
  HS02004852HS02004856        0.54      0.54      0.56      0.02         0.01
  HS02004024HS02004022        0.01      0.01      0.12      0.01         0.01
  HS02004022HS02004021        0.12      0.12      0.21      0.01         0.01
  HS02004021HS02004019        0.21      0.21      0.29      0.15         0.15
  HS02004019HS02003162        0.01      0.29      0.01      0.32         0.01
  HS02004052HS02004053        0.11      0.12      0.11      0.14         0.11
  HS02003122HS02003125        1.44      1.44      1.44      0.13         0.17
  HS02003119HS02003122        1.43      1.43      1.44      0.01         0.01
  HS02003116HS02003119        1.17      1.17      1.43      0.01         0.01
  HS02003111HS02003116        0.01      0.01      1.25      0.01         0.01
  HS02004018HS02004019        0.15      0.15      0.29      0.01         0.01
  HS02003056HS02003136        0.69      0.69      1.46      0.01         0.01
  HS02004017HS02004018        0.14      0.14      0.15      0.01         0.01
  HS02004013HS02004017        0.01      0.01      0.14      0.01         0.01
  HS02004802HS02004478        0.77      0.77      0.84      0.14         0.01
  HS02004478WS02006287        0.62      0.62      0.82      0.01         0.01
  HS02003148HS02003145        0.01      0.01      0.09      0.01         0.01
  HS02003145HS02003143        0.09      0.09      0.44      0.08         0.07
  HS02003136WS02003203        1.47      1.47      1.60      0.01         0.01
  HS02003084HS02003088        0.01      0.01      0.03      0.01         0.01
  HS02003108HS02003111        0.13      0.13      0.33      0.01         0.01
  HS02003100HS02003108        0.06      0.06      0.13      0.01         0.01
  HS02003088HS02003100        0.05      0.05      0.06      0.01         0.01
  HS02004817HS02004807        0.81      0.81      1.53      0.01         0.01
  HS02004807HS02004802        0.81      0.81      0.83      0.28         0.28
  HS02003053HS02003056        0.62      0.62      0.83      0.01         0.01
  HS02003039HS02003042        0.27      0.28      0.31      0.14         0.02
  HS02003036HS02003039        0.10      0.10      0.14      0.01         0.01
  YS02001759YS02001757        0.01      0.01      0.01      0.10         0.01
  YS02001762YS02001759        0.01      0.01      0.01      0.09         0.01
  YS02001770YS02001767        0.01      0.04      0.01      0.53         0.01
  YS02001774YS02001770        0.02      0.02      0.06      0.01         0.01
  YS02001779YS02001774        0.01      0.01      0.06      0.01         0.01
  YS02001767YS02001765        0.01      0.01      0.01      0.11         0.01
  YS02006561YS02001783        0.35      0.35      0.55      0.01         0.01
  YS02001783YS02001784        0.52      0.55      0.52      0.71         0.52
  YS02001784YS02001785        0.42      0.52      0.42      1.07         0.42
  YS02001790YS02001791        0.01      0.01      0.01      0.51         0.01
  YS02001910YS02001907        0.58      0.58      0.79      0.01         0.01
  YS02001786YS02001788        0.01      0.42      0.01      0.85         0.01
  YS02001915YS02001910        0.49      0.49      0.58      0.01         0.01
  YS02001918YS02001915        0.40      0.40      0.49      0.01         0.01
  YS02001923YS02001920        0.33      0.33      0.42      0.01         0.01
  YS02001926YS02001923        0.11      0.11      0.13      0.01         0.01
  YS02001929YS02001926        0.02      0.02      0.13      0.01         0.01
  YS02001932YS02001929        0.01      0.01      0.02      0.01         0.01
  YS02001935YS02001932        0.01      0.01      0.01      0.01         0.01
  YS02001920YS02001918        0.40      0.40      0.42      0.01         0.01
  YS02003290YS02003287        1.50      1.50      1.60      0.01         0.01
  YS02003294YS02003290        1.52      1.52      1.65      0.03         0.01
  YS02003297YS02003294        1.63      1.63      1.64      0.30         0.34
  YS02003275YS02003272        1.19      1.36      1.19      1.57         1.19
  YS02003300YS02003297        1.54      1.54      1.60      0.01         0.01
  YS02003303YS02003300        1.48      1.48      1.56      0.01         0.01
  YS02005550YS02005551        0.01      0.01      0.01      0.04         0.01
  YS02005568YS02005569        0.01      0.01      0.01      0.15         0.01
  YS02005582YS02005583        0.25      0.45      0.25      0.64         0.25
  YS02003272YS02003269        0.01      1.28      0.01      1.57         0.01
  YS02003278YS02003275        1.42      1.62      1.42      1.74         1.42
  YS02003281YS02003278        1.57      1.57      1.61      1.41         1.41
  YS02003284YS02003281        1.57      1.57      1.61      1.04         0.27
  YS02003287YS02003284        1.59      1.59      1.64      0.01         0.06
  YS02003306YS02003303        1.41      1.41      1.54      0.40         0.40
  YS02003309YS02003306        1.25      1.25      1.41      0.01         0.01
  YS02005600YS02005375        0.15      0.15      0.17      0.17         0.15
  YS02005384YS02005593        0.01      1.22      0.01      1.28         0.01
  YS02005595YS02005596        0.20      0.21      0.20      0.23         0.20
  YS02005612YS02005613        0.05      0.05      0.92      0.23         0.01
  YS02005553YS02005554        0.01      0.01      0.01      0.15         0.01
  YS02005556YS02005557        0.01      0.01      0.01      0.18         0.01
  YS02005562YS02005563        0.01      0.01      0.01      0.11         0.01
  YS02005571YS02005572        0.01      0.29      0.01      0.45         0.01
  YS02005572YS02005574        0.01      0.01      0.01      0.09         0.01
  YS02005579YS02005580        0.17      0.33      0.17      0.50         0.17
  YS02005580YS02005581        0.14      0.17      0.14      0.19         0.14
  YS02005583YS02005584        0.25      0.25      0.26      0.26         0.25
  YS02006553YS02006556        0.68      0.68      0.81      0.01         0.01
  YS02006556YS02006558        0.74      0.74      0.85      0.01         0.01
  YSB6556YSB1171              0.95      0.95      1.61      0.01         0.01
  YSB1202YSB1205              1.30      1.30      1.35      0.01         0.01
  YSB1205YSB1209              1.35      1.35      1.35      0.99         0.94
  YSB1209YSB1212              1.33      1.35      1.33      1.45         1.33
  YSB1212YSB1215              1.33      1.33      1.33      0.69         0.68
  YSB1215YSB1218              1.33      1.33      1.33      0.78         0.76
  YSB1218YSB1221              1.30      1.30      1.33      1.05         1.05
  YSB1221YSB1224              1.33      1.33      1.34      1.29         1.28
  YSB1224YSB1105              0.82      1.37      0.82      1.45         0.82
  YSB1189YSB1186              0.55      0.55      0.66      0.20         0.20
  YS02001907YS02006553        1.08      1.08      1.20      0.01         0.01
  YS02006562YS02006558        0.55      0.55      0.85      0.01         0.01
  YS02006558YS02006561        0.44      0.67      0.44      1.00         0.44
  YS6184YS6187                0.08      0.08      0.09      0.01         0.01
  YS6360YS6363                0.05      0.11      0.05      0.64         0.05
  YS6354YS6360                0.15      0.15      0.16      0.16         0.14
  YS6351YS6354                0.15      0.18      0.15      0.35         0.15
  YS6350YS6351                0.18      0.20      0.18      0.66         0.18
  YS6348YS6350                0.19      0.19      0.20      0.17         0.16
  YS6344YS6348                0.19      0.19      0.24      0.01         0.01
  YS6363YS6132                0.05      0.05      0.20      0.01         0.01
  YS6137YS6132                0.12      0.12      0.29      0.01         0.01
  YS6189YS6137                0.12      0.12      0.14      1.44         0.01
  YS6187YS6189                0.08      0.08      0.09      0.21         0.01
  YS6179YS6184                0.05      0.05      0.08      0.01         0.01
  YS6176YS6179                0.01      0.01      0.05      0.01         0.01
  YS6171YS6176                0.01      0.01      0.05      0.01         0.01
  YS6168YS6171                0.01      0.01      0.01      0.01         0.01
  YS6162YS6164                0.01      0.01      0.01      0.01         0.01
  YS6132YS6404                0.01      0.10      0.01      0.23         0.01
  YSB1106YSB1105              0.07      0.18      0.07      0.23         0.07
  YSB1109YSB1106              0.18      0.24      0.18      0.38         0.18
  YSB1112YSB1109              0.24      0.25      0.24      0.28         0.24
  YSB1115YSB1112              0.22      0.22      0.25      0.05         0.05
  YSB1118YSB1115              0.25      0.25      0.25      0.25         0.23
  YSB1121YSB1118              0.25      0.28      0.25      0.36         0.25
  YSB1124YSB1121              0.24      0.24      0.28      0.01         0.01
  YSB1105YSB1103              0.12      0.12      0.17      0.17         0.12
  YS02001882YS02001884        0.49      0.49      0.50      0.01         0.01
  YS02001884YS02001887        0.52      0.52      0.53      0.01         0.01
  YS02001890YS02001895        0.48      0.48      0.58      0.01         0.01
  YS02001895YS02001898        0.47      0.47      0.48      0.01         0.01
  YS02001898YS02001901        0.48      0.48      0.52      0.01         0.01
  YS02001901YS02001904        0.51      0.51      0.52      0.01         0.01
  YS02001904YS02001907        0.51      0.51      0.82      0.01         0.01
  YS02001887YS02001890        0.55      0.55      0.56      0.04         0.01
  YS02004309YS02004307        0.08      0.78      0.08      0.75         0.08
  YS02004319YS02004316        0.22      0.22      0.23      0.01         0.01
  YS02005376YS02005378        1.54      1.54      1.84      0.01         0.01
  YS02005378YS02005381        1.80      1.80      1.84      0.27         0.01
  YS02005381YS02005384        1.22      1.22      1.80      1.82         0.01
  YS02005598YS02005374        0.16      0.16      0.17      0.17         0.16
  YS02005602YS02005603        0.14      0.40      0.14      0.53         0.14
  YS02005603YS02005607        0.14      0.14      0.15      0.15         0.14
  YS02005618YS02005619        0.01      0.01      0.01      0.02         0.01
  YS02005621YS02005622        0.01      0.01      0.01      0.07         0.01
  YS02005624YS02005625        0.01      0.01      0.26      0.04         0.01
  YS02005630YS02005631        0.01      0.04      0.01      0.09         0.01
  YS02005633YS02005634        0.01      0.03      0.01      0.06         0.01
  YS02005636YS02005637        0.01      0.09      0.01      0.13         0.01
  YS02005639YS02005640        0.01      0.06      0.01      0.09         0.01
  YS02005627YS02005628        0.01      0.04      0.01      0.26         0.01
  YS02005644YS02005645        0.01      0.08      0.01      0.10         0.01
  YS02005650YS02005651        0.01      0.09      0.01      0.17         0.01
  YS02005653YS02005654        0.08      0.08      0.09      0.08         0.08
  YS02005654YS02005655        0.01      0.09      0.01      0.17         0.01
  YS02005658YS02005659        0.01      0.04      0.01      0.08         0.01
  YS02005661YS02005662        0.01      0.09      0.01      0.20         0.01
  YS02005664YS02005665        0.01      0.08      0.01      0.43         0.01
  YS02005667YS02005668        0.01      0.01      0.31      0.01         0.01
  YS02005647YS02005648        0.01      0.23      0.01      0.36         0.01
  YS02004312YS02004309        0.44      0.44      0.78      0.01         0.01
  YS02004314YS02004312        0.25      0.25      0.44      0.01         0.01
  YS02004316YS02004314        0.23      0.23      0.25      0.18         0.18
  YS02004320YS02004319        0.01      0.01      0.15      0.01         0.01
  YS6404YS6401                0.01      0.01      0.01      0.60         0.01
  YSB1132YSB1135              0.50      0.50      0.56      0.01         0.01
  YSB1135YSB1138              0.56      0.56      0.59      0.01         0.01
  YSB1138YSB1141              0.59      0.59      0.69      0.26         0.27
  YSB1141YSB1145              0.67      0.67      0.70      0.25         0.24
  YSB1148YSB1151              0.79      0.79      1.09      0.01         0.01
  YSB1151YSB1154              0.90      0.90      1.31      0.01         0.01
  YSB1154YSB6556              0.95      0.95      1.31      0.27         0.01
  YSB1128YSB1132              0.48      0.48      0.50      0.01         0.01
  YSB1145YSB1148              0.70      0.70      0.79      0.01         0.01
  YSB1198YSB1195              0.30      0.30      0.49      0.01         0.01
  YSB1195YSB1192              0.49      0.49      0.51      0.01         0.01
  YSB1192YSB1189              0.51      0.51      0.55      0.01         0.01
  YSB1186YSB1183              0.60      0.60      0.72      0.01         0.01
  YSB1183YSB1180              0.72      0.72      0.76      0.24         0.25
  YSB1180YSB1177              0.76      0.76      1.16      0.01         0.01
  YSB1177YSB1174              1.16      1.16      1.48      0.25         0.26
  YSB1174YSB1171              1.10      1.10      1.55      0.08         0.09
  YSB1171HS02004479           0.80      0.80      1.28      0.01         0.01
  YS02004307HS02004052        0.01      0.01      0.12      0.01         0.01
  HS02004881HS02006253        0.66      0.66      1.50      0.01         0.01
  WS0200404049WS6136          0.10      0.10      0.18      0.01         0.01
  HS02003125WS02003215        1.44      1.44      1.47      0.01         0.01
  YS02001793JiankangQianchi        0.01      0.01      2.02      0.01         0.01
  YS02001757CaochengTiaoxuchi        0.01      0.01      0.55      0.02         0.01
  WS02004041WS6409            1.06      1.06      1.17      1.16         1.06
  WSF200WS02003060            0.18      0.18      0.43      0.01         0.01
  HS02004053WS02004407        0.11      0.11      1.09      0.01         0.01
  HS02003036HS02003028        0.10      0.10      0.19      0.01         0.01
  
  
  ***************
  Pumping Summary
  ***************
  
  ---------------------------------------------------------------------------------------------------------
                                                  Min       Avg       Max     Total     Power    % Time Off
                        Percent   Number of      Flow      Flow      Flow    Volume     Usage    Pump Curve
  Pump                 Utilized   Start-Ups       LPS       LPS       LPS  10^6 ltr     Kw-hr    Low   High
  ---------------------------------------------------------------------------------------------------------
  CaochengSewagePump1     87.05           1      0.00    200.00    200.00     1.275      9.86    0.0    0.0
  CaochengSewagePump2     51.50           1      0.00    200.00    200.00     0.755      6.19    0.0    0.0
  CaochengRainPump1       46.81           1      0.00    683.00    683.00     2.342      2.85    0.0   51.9
  CaochengRainPump2        0.00           0      0.00      0.00      0.00     0.000      0.00    0.0    0.0
  JiankangSewagePump      72.81           1      0.00    300.00    300.00     1.600     24.76    0.0    0.0
  JiankangRainPump1       32.72           5      0.00   1000.00   1000.00     2.397     15.80    0.0    0.0
  JiankangRainPump2        0.00           0      0.00      0.00      0.00     0.000      0.00    0.0    0.0
  XierchiSewagePump1      91.80           1      0.00     95.00     95.00     0.639      3.95    0.0    0.0
  XierchiSewagePump2      76.21           1      0.00     95.00     95.00     0.530      3.11    0.0    0.0
  XierchiSewagePump3       0.00           0      0.00      0.00      0.00     0.000      0.00    0.0    0.0
  XierchiSewagePump4       0.00           0      0.00      0.00      0.00     0.000      0.00    0.0    0.0
  

  Analysis begun on:  Sun Nov 20 00:22:43 2022
  Analysis ended on:  Sun Nov 20 00:53:17 2022
  Total elapsed time: 00:30:34