
  EPA STORM WATER MANAGEMENT MODEL - VERSION 5.1 (Build 5.3.0.dev0)
  --------------------------------------------------------------

  WARNING 04: minimum elevation drop used for Conduit WS02004404WS02004405
  WARNING 03: negative offset ignored for Link YS02001904YS02001907
  
  *********************************************************
  NOTE: The summary statistics displayed in this report are
  based on results found at every computational time step,  
  not just on results from each reporting time step.
  *********************************************************
  
  ****************
  Analysis Options
  ****************
  Flow Units ............... LPS
  Process Models:
    Rainfall/Runoff ........ YES
    RDII ................... NO
    Snowmelt ............... NO
    Groundwater ............ NO
    Flow Routing ........... YES
    Ponding Allowed ........ NO
    Water Quality .......... NO
  Infiltration Method ...... HORTON
  Flow Routing Method ...... DYNWAVE
  Surcharge Method ......... EXTRAN
  Starting Date ............ 03/31/2017 00:00:00
  Ending Date .............. 03/31/2017 05:00:00
  Antecedent Dry Days ...... 8.0
  Report Time Step ......... 00:00:30
  Wet Time Step ............ 00:01:00
  Dry Time Step ............ 00:01:00
  Routing Time Step ........ 30.00 sec
  Variable Time Step ....... YES
  Maximum Trials ........... 8
  Number of Threads ........ 6
  Head Tolerance ........... 0.001500 m
  
  
  **************************        Volume         Depth
  Runoff Quantity Continuity     hectare-m            mm
  **************************     ---------       -------
  Total Precipitation ......        14.578       123.711
  Evaporation Loss .........         0.000         0.000
  Infiltration Loss ........         0.556         4.722
  Surface Runoff ...........        13.767       116.832
  Final Storage ............         0.259         2.194
  Continuity Error (%) .....        -0.030
  
  
  **************************        Volume        Volume
  Flow Routing Continuity        hectare-m      10^6 ltr
  **************************     ---------     ---------
  Dry Weather Inflow .......         0.342         3.418
  Wet Weather Inflow .......        13.767       137.669
  Groundwater Inflow .......         0.000         0.000
  RDII Inflow ..............         0.000         0.000
  External Inflow ..........         0.080         0.795
  External Outflow .........         7.617        76.167
  Flooding Loss ............         6.479        64.794
  Evaporation Loss .........         0.000         0.000
  Exfiltration Loss ........         0.000         0.000
  Initial Stored Volume ....         0.303         3.031
  Final Stored Volume ......         0.431         4.315
  Continuity Error (%) .....        -0.251
  
  
  *************************
  Highest Continuity Errors
  *************************
  Node HS02004036 (100.00%)
  Node YS02001884 (7.45%)
  Node YS02004320 (3.93%)
  Node YS6162 (2.84%)
  Node YSB1195 (-1.35%)
  
  
  ***************************
  Time-Step Critical Elements
  ***************************
  Link WS02004041WS6409 (38.33%)
  Link YS02005655YS02005657 (29.94%)
  Link WS02006252WS02006251 (16.18%)
  Link WS02006280WS02006229 (1.38%)
  Link WS02003073WS02003076 (1.29%)
  
  
  ********************************
  Highest Flow Instability Indexes
  ********************************
  Link WS02006238WS02006235 (59)
  Link WS02003215WS02003116 (53)
  Link WS02004404WS02004405 (52)
  Link WS02003122WS02003187 (52)
  Link WS02003200WS02003201 (51)
  
  
  *************************
  Routing Time Step Summary
  *************************
  Minimum Time Step           :     0.50 sec
  Average Time Step           :     1.02 sec
  Maximum Time Step           :    30.00 sec
  Percent in Steady State     :     0.00
  Average Iterations per Step :     5.29
  Percent Not Converging      :    27.42
  
  
  ***************************
  Subcatchment Runoff Summary
  ***************************
  
  ------------------------------------------------------------------------------------------------------------------------------
                            Total      Total      Total      Total     Imperv       Perv      Total       Total     Peak  Runoff
                           Precip      Runon       Evap      Infil     Runoff     Runoff     Runoff      Runoff   Runoff   Coeff
  Subcatchment                 mm         mm         mm         mm         mm         mm         mm    10^6 ltr      LPS
  ------------------------------------------------------------------------------------------------------------------------------
  sub0                     123.71       0.00       0.00       1.28     113.75       7.37     121.12        0.10    69.69   0.979
  sub1                     123.71       0.00       0.00       2.02     108.53      11.45     119.98        0.80   475.50   0.970
  sub2                     123.71       0.00       0.00       6.79      76.71      36.83     113.54        1.06   506.76   0.918
  sub3                     123.71       0.00       0.00       6.79      76.50      36.01     112.51        2.53  1101.67   0.909
  sub4                     123.71       0.00       0.00       2.02     107.67      11.28     118.95        2.48  1190.04   0.962
  sub5                     123.71       0.00       0.00       1.28     113.41       7.32     120.73        1.37   816.33   0.976
  sub6                     123.71       0.00       0.00       1.28     113.20       7.30     120.50        3.11  1753.06   0.974
  sub7                     123.71       0.00       0.00       1.65     111.17       9.43     120.60        0.41   267.11   0.975
  sub8                     123.71       0.00       0.00       1.65     111.11       9.41     120.52        0.77   489.13   0.974
  sub9                     123.71       0.00       0.00       1.65     111.09       9.41     120.50        0.58   365.30   0.974
  sub10                    123.71       0.00       0.00       1.47     112.24       8.36     120.60        1.33   808.96   0.975
  sub11                    123.71       0.00       0.00       1.47     112.35       8.38     120.73        1.40   901.55   0.976
  sub12                    123.71       0.00       0.00       2.39     106.37      13.61     119.98        1.05   723.26   0.970
  sub13                    123.71       0.00       0.00       6.24      80.59      34.75     115.34        1.37   780.55   0.932
  sub14                    123.71       0.00       0.00       1.65     111.08       9.41     120.49        1.15   718.27   0.974
  sub15                    123.71       0.00       0.00       5.51      85.43      30.67     116.09        2.00  1132.49   0.938
  sub16                    123.71       0.00       0.00       6.06      81.89      34.04     115.93        1.21   759.71   0.937
  sub17                    123.71       0.00       0.00       5.87      83.10      32.98     116.08        1.00   616.80   0.938
  sub18                    123.71       0.00       0.00       1.65     111.21       9.43     120.65        0.96   645.56   0.975
  sub19                    123.71       0.00       0.00       5.69      84.31      31.93     116.23        0.37   226.48   0.940
  sub20                    123.71       0.00       0.00       1.65     111.17       9.42     120.59        0.84   551.44   0.975
  sub21                    123.71       0.00       0.00       2.20     107.56      12.56     120.12        0.61   413.30   0.971
  sub22                    123.71       0.00       0.00       7.89      69.62      43.57     113.19        7.15  3822.84   0.915
  sub23                    123.71       0.00       0.00       6.79      76.96      37.81     114.77        5.47  3137.38   0.928
  sub24                    123.71       0.00       0.00       2.57     105.10      14.62     119.73        4.29  2872.50   0.968
  sub25                    123.71       0.00       0.00       1.28     113.77       7.37     121.14        1.57  1141.76   0.979
  sub26                    123.71       0.00       0.00       4.40      92.99      25.13     118.12        1.68  1240.57   0.955
  sub27                    123.71       0.00       0.00       1.65     111.06       9.40     120.46        1.74  1079.25   0.974
  sub28                    123.71       0.00       0.00       1.47     112.26       8.36     120.63        1.89  1164.62   0.975
  sub29                    123.71       0.00       0.00       1.47     111.93       8.32     120.25        1.94  1072.64   0.972
  sub30                    123.71       0.00       0.00       1.47     112.48       8.40     120.89        2.72  1884.38   0.977
  sub31                    123.71       0.00       0.00       3.12     101.51      17.79     119.30        2.53  1774.86   0.964
  sub32                    123.71       0.00       0.00       1.47     112.40       8.39     120.79        2.41  1588.44   0.976
  sub33                    123.71       0.00       0.00       2.39     106.38      13.62     120.00        2.20  1524.49   0.970
  sub34                    123.71       0.00       0.00       9.18      61.17      51.52     112.69        2.52  1550.87   0.911
  sub35                    123.71       0.00       0.00       1.46     112.60       8.44     121.04        0.42   336.93   0.978
  sub36                    123.71       0.00       0.00       4.04      95.42      23.02     118.44        1.03   738.17   0.957
  sub37                    123.71       0.00       0.00       7.16      74.64      40.60     115.24        0.88   608.75   0.932
  sub38                    123.71       0.00       0.00       6.42      79.54      36.56     116.10        2.20  1607.27   0.939
  sub39                    123.71       0.00       0.00       1.47     112.56       8.42     120.99        1.29   963.48   0.978
  sub40                    123.71       0.00       0.00       1.47     112.57       8.43     120.99        1.41  1062.29   0.978
  sub41                    123.71       0.00       0.00       2.94     102.75      16.77     119.52        2.30  1642.27   0.966
  sub42                    123.71       0.00       0.00       1.65     111.33       9.47     120.81        1.21   900.01   0.977
  sub43                    123.71       0.00       0.00       6.97      75.81      39.20     115.02        0.94   590.96   0.930
  sub44                    123.71       0.00       0.00       1.28     113.51       7.33     120.84        1.37   849.97   0.977
  sub45                    123.71       0.00       0.00       3.12     101.37      17.67     119.04        2.18  1386.04   0.962
  sub46                    123.71       0.00       0.00      11.56      45.27      64.41     109.68        0.77   419.97   0.887
  sub47                    123.71       0.00       0.00       1.47     112.41       8.39     120.80        0.92   612.82   0.976
  sub48                    123.71       0.00       0.00       1.65     111.17       9.43     120.60        0.92   606.03   0.975
  sub49                    123.71       0.00       0.00       1.47     112.33       8.37     120.70        1.10   699.41   0.976
  sub50                    123.71       0.00       0.00       1.47     112.34       8.38     120.71        0.85   540.17   0.976
  sub51                    123.71       0.00       0.00       1.47     112.44       8.39     120.84        0.57   384.87   0.977
  sub52                    123.71       0.00       0.00       1.28     113.53       7.33     120.86        1.31   824.06   0.977
  sub53                    123.71       0.00       0.00       1.47     112.40       8.39     120.79        1.22   806.44   0.976
  sub54                    123.71       0.00       0.00       1.28     113.39       7.32     120.71        0.72   427.85   0.976
  sub55                    123.71       0.00       0.00       1.47     112.25       8.36     120.61        0.96   589.14   0.975
  sub56                    123.71       0.00       0.00       3.49      98.59      19.47     118.07        1.68   910.94   0.954
  sub57                    123.71       0.00       0.00       5.69      84.17      31.57     115.75        0.75   413.38   0.936
  sub58                    123.71       0.00       0.00      13.40      33.02      71.63     104.65        3.87  1481.87   0.846
  sub59                    123.71       0.00       0.00      14.13      28.11      72.50     100.62        2.31   730.92   0.813
  sub60                    123.71       0.00       0.00       2.20     107.49      12.53     120.02        1.58  1024.13   0.970
  sub61                    123.71       0.00       0.00       3.12     101.41      17.70     119.11        2.19  1424.95   0.963
  sub62                    123.71       0.00       0.00       1.47     112.20       8.36     120.56        3.30  1979.50   0.975
  sub67                    123.71       0.00       0.00       1.47     112.25       8.36     120.62        2.24  1375.04   0.975
  sub68                    123.71       0.00       0.00       2.57     104.98      14.56     119.54        3.29  2045.19   0.966
  sub71                    123.71       0.00       0.00       1.47     111.97       8.33     120.30        3.15  1762.25   0.972
  sub72                    123.71       0.00       0.00       1.28     112.87       7.27     120.14        1.65   853.38   0.971
  sub73                    123.71       0.00       0.00       3.85      96.65      21.98     118.62        0.12    83.48   0.959
  sub74                    123.71       0.00       0.00       5.87      83.19      33.31     116.50        0.19   129.46   0.942
  sub75                    123.71       0.00       0.00       5.51      85.64      31.31     116.95        0.26   182.85   0.945
  sub76                    123.71       0.00       0.00       3.30     100.30      18.84     119.14        0.29   205.73   0.963
  sub77                    123.71       0.00       0.00       3.12     101.54      17.82     119.36        0.19   137.32   0.965
  sub78                    123.71       0.00       0.00       2.39     106.36      13.61     119.97        0.33   226.99   0.970
  sub79                    123.71       0.00       0.00       4.40      92.91      24.94     117.85        0.30   202.37   0.953
  sub80                    123.71       0.00       0.00       6.06      81.95      34.29     116.25        0.34   231.31   0.940
  sub81                    123.71       0.00       0.00       6.79      77.05      38.26     115.30        0.35   227.89   0.932
  sub82                    123.71       0.00       0.00       6.79      77.06      38.35     115.41        0.35   229.96   0.933
  sub83                    123.71       0.00       0.00       6.97      75.85      39.45     115.29        0.39   261.42   0.932
  sub84                    123.71       0.00       0.00       6.42      79.47      36.14     115.61        0.63   398.83   0.935
  sub85                    123.71       0.00       0.00       4.40      92.90      24.92     117.82        0.52   344.62   0.952
  sub86                    123.71       0.00       0.00       4.77      90.47      27.00     117.47        0.57   375.81   0.950
  sub87                    123.71       0.00       0.00       6.42      79.50      36.29     115.79        0.35   230.41   0.936
  sub88                    123.71       0.00       0.00       6.24      80.73      35.30     116.02        0.35   237.82   0.938
  sub89                    123.71       0.00       0.00       5.69      84.42      32.32     116.74        0.31   217.78   0.944
  sub90                    123.71       0.00       0.00       4.95      89.30      28.15     117.45        0.29   201.63   0.949
  sub91                    123.71       0.00       0.00       4.95      89.33      28.26     117.58        0.21   157.53   0.950
  sub92                    123.71       0.00       0.00       5.69      84.45      32.48     116.92        0.18   133.96   0.945
  sub93                    123.71       0.00       0.00       5.69      84.45      32.49     116.94        0.21   163.13   0.945
  sub94                    123.71       0.00       0.00       5.69      84.43      32.40     116.83        0.25   185.23   0.944
  sub95                    123.71       0.00       0.00       5.32      86.88      30.36     117.24        0.18   132.39   0.948
  sub96                    123.71       0.00       0.00       4.04      95.47      23.13     118.60        0.22   175.14   0.959
  sub97                    123.71       0.00       0.00      11.19      47.74      63.85     111.59        0.26   196.44   0.902
  sub98                    123.71       0.00       0.00      13.21      34.27      74.28     108.55        0.35   205.73   0.877
  sub99                    123.71       0.00       0.00      14.50      25.70      80.20     105.90        0.37   172.02   0.856
  sub100                   123.71       0.00       0.00      14.50      25.70      79.14     104.84        0.37   149.64   0.847
  sub101                   123.71       0.00       0.00      14.50      25.70      79.03     104.72        0.35   142.29   0.847
  sub102                   123.71       0.00       0.00      13.95      29.36      75.18     104.53        0.31   121.12   0.845
  sub103                   123.71       0.00       0.00      14.31      26.91      76.61     103.52        0.49   178.90   0.837
  sub104                   123.71       0.00       0.00      14.31      26.91      76.33     103.24        0.54   193.46   0.835
  sub105                   123.71       0.00       0.00      14.86      23.24      79.23     102.48        0.59   200.97   0.828
  sub106                   123.71       0.00       0.00      14.50      25.69      78.33     104.03        0.53   201.71   0.841
  sub107                   123.71       0.00       0.00      14.86      23.25      81.15     104.40        0.74   296.15   0.844
  sub108                   123.71       0.00       0.00      15.05      22.03      83.38     105.41        0.98   453.23   0.852
  sub109                   123.71       0.00       0.00      11.74      44.05      65.52     109.57        1.56   862.09   0.886
  sub110                   123.71       0.00       0.00       3.30     100.25      18.78     119.03        2.50  1695.74   0.962
  sub111                   123.71       0.00       0.00       4.77      90.48      27.03     117.51        1.01   677.23   0.950
  sub112                   123.71       0.00       0.00       3.85      96.60      21.90     118.50        0.93   640.84   0.958
  sub113                   123.71       0.00       0.00       2.57     105.15      14.65     119.80        0.83   572.13   0.968
  sub114                   123.71       0.00       0.00       2.39     106.38      13.62     119.99        0.79   550.82   0.970
  sub115                   123.71       0.00       0.00       2.20     107.59      12.57     120.16        0.88   609.37   0.971
  sub116                   123.71       0.00       0.00       7.34      73.36      41.15     114.51        0.21   130.55   0.926
  sub117                   123.71       0.00       0.00       7.52      72.16      42.30     114.45        0.52   330.83   0.925
  
  
  ******************
  Node Depth Summary
  ******************
  
  ---------------------------------------------------------------------------------
                                 Average  Maximum  Maximum  Time of Max    Reported
                                   Depth    Depth      HGL   Occurrence   Max Depth
  Node                 Type       Meters   Meters   Meters  days hr:min      Meters
  ---------------------------------------------------------------------------------
  WS02001211           JUNCTION     0.95     1.90     6.74     0  01:08        1.79
  WS02001212           JUNCTION     0.71     1.62     6.68     0  01:08        1.56
  WS02001213           JUNCTION     0.96     1.89     6.66     0  01:08        1.85
  WS02003069           JUNCTION     0.90     1.69     6.28     0  01:14        1.68
  WS02003072           JUNCTION     0.98     1.59     5.96     0  01:14        1.58
  WS02003073           JUNCTION     1.21     1.71     5.77     0  01:14        1.71
  WS02003076           JUNCTION     0.95     1.36     5.58     0  01:14        1.36
  WS02003060           JUNCTION     0.79     1.68     6.62     0  01:14        1.67
  WS02003066           JUNCTION     0.48     1.17     6.73     0  01:13        1.17
  WS02003059           JUNCTION     1.03     1.93     6.62     0  01:14        1.92
  WS02003115           JUNCTION     1.76     2.76     9.62     0  00:46        2.73
  WS02003116           JUNCTION     1.90     2.94     9.65     0  01:30        2.93
  WS02003118           JUNCTION     1.88     2.90     9.52     0  00:31        2.90
  WS02003215           JUNCTION     1.78     2.80     9.66     0  00:46        2.80
  WS02003110           JUNCTION     1.44     2.45     9.71     0  01:16        2.45
  WS02003111           JUNCTION     1.55     2.35     9.44     0  00:46        2.35
  WS02005155           JUNCTION     1.42     2.66     9.97     0  01:16        2.64
  WS02005154           JUNCTION     1.20     2.67    10.30     0  01:15        2.67
  WS02005193           JUNCTION     1.18     3.09    10.91     0  01:16        3.08
  WS02005196           JUNCTION     1.15     3.25    11.09     0  01:06        3.06
  WS02003067           JUNCTION     0.83     1.49     6.81     0  01:14        1.48
  WS02004401           JUNCTION     1.35     2.52     8.52     0  01:12        2.52
  WS02004402           JUNCTION     1.35     2.54     8.50     0  01:12        2.53
  WS02004403           JUNCTION     1.34     2.53     8.46     0  01:12        2.53
  WS02004404           JUNCTION     1.39     2.59     8.44     0  01:12        2.59
  WS02004406           JUNCTION     1.34     2.53     8.36     0  01:12        2.52
  WS02004409           JUNCTION     1.11     2.35     8.12     0  01:12        2.30
  WS02004410           JUNCTION     1.03     2.10     7.82     0  01:13        2.09
  WS02004411           JUNCTION     0.97     1.89     7.57     0  01:14        1.88
  WS02004412           JUNCTION     0.90     1.66     7.30     0  01:14        1.63
  WS02004413           JUNCTION     0.97     1.56     7.03     0  01:14        1.55
  WS02004405           JUNCTION     1.37     2.57     8.42     0  01:12        2.57
  WS02006109           JUNCTION     1.73     2.64     9.26     0  01:04        2.64
  WS02006110           JUNCTION     1.56     2.49     9.07     0  01:29        2.48
  WS02006111           JUNCTION     0.99     2.00     8.70     0  01:21        1.99
  WS02006112           JUNCTION     1.62     2.68     8.56     0  00:00        2.68
  WS02006113           JUNCTION     1.06     2.00     8.89     0  01:12        1.99
  WS02006115           JUNCTION     1.30     2.42     8.56     0  01:12        2.41
  WS02006116           JUNCTION     1.36     2.50     8.54     0  01:12        2.50
  WS02006230           JUNCTION     1.80     2.65     9.39     0  00:58        2.65
  WS02006231           JUNCTION     1.42     2.19     9.31     0  02:02        2.19
  WS02006232           JUNCTION     1.48     2.18     9.22     0  00:58        2.18
  WS02006234           JUNCTION     1.33     1.96     9.12     0  00:56        1.96
  WS02006235           JUNCTION     1.32     1.93     9.10     0  01:50        1.93
  WS02006238           JUNCTION     1.33     1.94     9.08     0  02:02        1.93
  WS02006240           JUNCTION     1.14     1.63     8.92     0  01:57        1.62
  WS02006242           JUNCTION     1.14     1.55     8.82     0  00:39        1.55
  WS02006243           JUNCTION     0.99     1.38     8.80     0  00:39        1.37
  WS02006245           JUNCTION     0.93     1.28     8.76     0  00:39        1.27
  WS02006247           JUNCTION     0.91     1.23     8.73     0  00:39        1.23
  WS02006248           JUNCTION     0.82     1.10     8.69     0  00:39        1.10
  WS02006249           JUNCTION     0.83     1.09     8.69     0  00:38        1.09
  WS02006239           JUNCTION     1.24     1.79     9.00     0  01:49        1.78
  WS02006251           JUNCTION     1.13     2.21     9.88     0  01:06        2.19
  WS02006252           JUNCTION     0.72     1.50     9.74     0  01:06        1.50
  WS02006253           JUNCTION     1.35     3.27    10.91     0  01:16        3.26
  WS02006256           JUNCTION     1.77     2.35     9.28     0  00:18        2.35
  WS02004138           JUNCTION     0.13     0.14     7.39     0  00:33        0.14
  WS02004139           JUNCTION     0.88     1.82     6.73     0  01:08        1.73
  WS02004407           JUNCTION     0.73     2.10     8.41     0  01:12        1.96
  WS02006228           JUNCTION     1.91     3.03     9.68     0  01:12        3.02
  WS02006229           JUNCTION     1.98     3.23     9.92     0  01:16        3.22
  WS02006280           JUNCTION     0.77     1.75    10.02     0  01:24        1.74
  WS02006284           JUNCTION     0.99     1.95    10.35     0  01:26        1.95
  WS02006287           JUNCTION     0.73     1.74    10.70     0  01:12        1.73
  WS02003091           JUNCTION     2.47     4.43    10.23     0  00:00        3.91
  WS02003203           JUNCTION     2.41     3.83     9.82     0  01:00        3.83
  WS6145               JUNCTION     0.36     2.33    10.43     0  01:13        2.30
  WS6147               JUNCTION     0.31     2.23    10.50     0  01:12        2.15
  WS6150               JUNCTION     0.31     2.21    10.54     0  01:12        2.12
  WS6152               JUNCTION     0.32     2.19    10.53     0  01:12        2.13
  WS6155               JUNCTION     0.28     2.10    10.50     0  01:12        2.10
  WS6156               JUNCTION     0.27     2.05    10.52     0  01:12        2.05
  WS6136               JUNCTION     0.32     1.90    10.85     0  01:12        1.90
  WS6140               JUNCTION     0.39     2.46    10.40     0  01:13        2.44
  WS6142               JUNCTION     0.36     2.35    10.42     0  01:13        2.30
  WS6325               JUNCTION     0.57     2.74    10.40     0  01:13        2.73
  WS6327               JUNCTION     0.45     2.59    10.40     0  01:18        2.56
  WS6329               JUNCTION     0.41     2.52    10.40     0  01:18        2.50
  WS6332               JUNCTION     0.36     2.51    10.55     0  01:11        2.35
  WS6158               JUNCTION     0.25     2.05    10.59     0  01:12        2.05
  WS6335               JUNCTION     0.36     2.60    10.67     0  01:11        2.31
  WS6338               JUNCTION     0.31     2.55    10.75     0  01:11        2.19
  WS6340               JUNCTION     0.28     2.50    10.84     0  01:11        2.05
  WS6342               JUNCTION     0.23     2.50    11.10     0  01:11        1.79
  WS6135               JUNCTION     0.72     2.90    10.39     0  01:13        2.88
  WS6396               JUNCTION     0.45     2.02     9.57     0  01:13        2.00
  WS6399               JUNCTION     0.28     1.38     8.81     0  01:13        1.36
  WS02003082           JUNCTION     1.24     1.93     7.00     0  01:28        1.92
  WS02003077           JUNCTION     0.42     0.85     5.85     0  01:14        0.84
  WS02003080           JUNCTION     0.84     1.30     6.24     0  01:13        1.30
  WS02003083           JUNCTION     1.58     2.42     7.45     0  01:28        2.40
  WS02003084           JUNCTION     1.69     2.60     7.70     0  01:18        2.59
  WS02003085           JUNCTION     1.76     2.73     7.90     0  01:28        2.72
  WS02003086           JUNCTION     1.97     3.03     8.23     0  01:28        3.02
  WS02003087           JUNCTION     2.20     3.36     8.58     0  01:25        3.35
  WS02003088           JUNCTION     2.36     4.14     9.43     0  00:00        4.07
  WS02003089           JUNCTION     2.45     4.34     9.80     0  00:00        4.02
  WS02003090           JUNCTION     2.64     4.43     9.86     0  00:00        4.05
  WS02003081           JUNCTION     1.02     1.61     6.66     0  01:14        1.61
  WS02003122           JUNCTION     2.06     3.11     9.48     0  01:22        3.10
  WS02003187           JUNCTION     2.09     3.11     9.44     0  01:07        3.11
  WS02003188           JUNCTION     2.08     2.97     9.23     0  01:09        2.97
  WS02003190           JUNCTION     2.07     2.84     9.04     0  00:43        2.84
  WS02003193           JUNCTION     2.04     2.85     9.09     0  00:43        2.85
  WS02003195           JUNCTION     2.05     2.93     9.18     0  00:43        2.93
  WS02003196           JUNCTION     2.15     3.14     9.32     0  01:15        3.13
  WS02003198           JUNCTION     2.16     3.25     9.44     0  01:16        3.25
  WS02003200           JUNCTION     1.90     2.97     9.40     0  00:43        2.93
  WS02003201           JUNCTION     2.15     3.22     9.36     0  00:43        3.22
  WS02003202           JUNCTION     2.26     4.17    10.23     0  00:00        3.48
  WS02004041           JUNCTION     0.62     0.98     5.35     0  01:14        0.98
  WSA6400              JUNCTION     0.99     2.43     8.27     0  01:13        2.41
  WS6400               JUNCTION     0.39     1.70     8.36     0  01:13        1.68
  WSF208               JUNCTION     0.70     1.95     8.04     0  01:13        1.94
  WSF207               JUNCTION     0.59     1.70     7.84     0  01:14        1.69
  WSF206               JUNCTION     0.68     1.74     7.68     0  01:13        1.73
  WSF205               JUNCTION     0.62     1.62     7.52     0  01:14        1.61
  WSF204               JUNCTION     1.21     2.18     7.33     0  01:13        2.17
  WSF203               JUNCTION     0.59     1.38     7.09     0  01:14        1.36
  WSF202               JUNCTION     0.51     1.21     6.93     0  01:14        1.20
  WSF201               JUNCTION     0.45     1.05     6.77     0  01:13        1.04
  WSF200               JUNCTION     0.59     1.46     6.69     0  01:13        1.45
  HS02004901           JUNCTION     0.60     1.42    11.24     0  01:04        1.42
  HS02004881           JUNCTION     0.45     2.08    11.11     0  01:06        2.00
  HS02004876           JUNCTION     0.57     2.24    11.27     0  01:16        2.23
  HS02004870           JUNCTION     0.48     2.10    11.39     0  01:07        2.09
  HS02004862           JUNCTION     0.49     2.00    11.38     0  01:07        2.00
  HS02004856           JUNCTION     0.52     2.07    11.50     0  01:07        2.07
  HS02004852           JUNCTION     0.46     2.08    11.59     0  01:07        2.07
  HS02004848           JUNCTION     0.45     2.07    11.67     0  01:07        2.07
  HS02004842           JUNCTION     0.76     2.22    11.49     0  01:07        2.22
  HS02004837           JUNCTION     0.47     2.02    11.60     0  01:07        1.98
  HS02004830           JUNCTION     0.52     2.03    11.50     0  01:07        2.03
  HS02004824           JUNCTION     0.55     2.01    11.41     0  01:07        2.01
  HS02004817           JUNCTION     1.04     2.43    11.28     0  01:07        2.43
  HS02004807           JUNCTION     0.71     1.92    11.09     0  01:07        1.92
  HS02004802           JUNCTION     0.72     1.80    10.93     0  01:13        1.80
  HS02004799           JUNCTION     0.78     1.76    10.97     0  01:07        1.76
  HS02004792           JUNCTION     0.59     1.60    11.12     0  01:04        1.60
  HS02004788           JUNCTION     0.45     1.42    11.32     0  01:04        1.42
  HS02004785           JUNCTION     0.49     1.49    11.39     0  01:04        1.39
  HS02004777           JUNCTION     0.61     1.48    11.28     0  01:04        1.48
  HS02004770           JUNCTION     0.59     1.42    11.25     0  01:04        1.42
  HS02004480           JUNCTION     0.70     1.68    10.92     0  01:07        1.63
  HS02004479           JUNCTION     0.74     1.69    10.90     0  01:07        1.67
  HS02004478           JUNCTION     0.60     1.59    10.82     0  01:12        1.59
  HS02004053           JUNCTION     0.25     1.90    10.67     0  01:12        1.10
  HS02004052           JUNCTION     0.31     1.50    11.15     0  01:12        1.39
  HS02004049           JUNCTION     0.18     1.10    11.78     0  01:12        0.86
  HS02004048           JUNCTION     0.41     1.70    12.60     0  01:11        1.70
  HS02004046           JUNCTION     0.43     1.80    13.52     0  01:14        1.80
  HS02004043           JUNCTION     0.24     2.24    14.93     0  01:15        2.24
  HS02004041           JUNCTION     0.16     1.99    17.43     0  01:15        1.99
  HS02004038           JUNCTION     0.13     2.01    20.69     0  01:15        1.87
  HS02004036           JUNCTION     0.00     0.01    22.47     0  01:26        0.01
  HS02004034           JUNCTION     0.00     0.00    26.84     0  01:21        0.00
  HS02004028           JUNCTION     0.16     0.51    37.36     0  01:11        0.51
  HS02004027           JUNCTION     0.13     0.34    36.46     0  01:11        0.34
  HS02004026           JUNCTION     0.13     0.35    35.75     0  01:11        0.34
  HS02004024           JUNCTION     0.13     0.41    34.63     0  01:11        0.40
  HS02004022           JUNCTION     0.19     0.80    33.84     0  01:10        0.80
  HS02004021           JUNCTION     0.22     0.81    32.54     0  01:08        0.81
  HS02004019           JUNCTION     0.27     0.80    31.76     0  01:06        0.80
  HS02004018           JUNCTION     0.19     0.60    33.81     0  01:10        0.60
  HS02004017           JUNCTION     0.17     0.53    34.37     0  01:11        0.53
  HS02004013           JUNCTION     0.13     0.72    35.86     0  01:14        0.72
  HS02004010           JUNCTION     0.05     0.23    38.10     0  01:16        0.23
  HS02003174           JUNCTION     0.16     0.55     6.09     0  01:17        0.55
  HS02003171           JUNCTION     0.17     0.61     6.29     0  01:17        0.61
  HS02003170           JUNCTION     0.21     0.55     7.00     0  01:17        0.55
  HS02003168           JUNCTION     0.11     0.38     6.88     0  01:17        0.38
  HS02003166           JUNCTION     0.20     0.56     7.03     0  01:17        0.56
  HS02003162           JUNCTION     0.18     0.42    30.67     0  01:07        0.42
  HS02003160           JUNCTION     0.13     0.43    28.48     0  01:16        0.42
  HS02003150           JUNCTION     0.14     0.45    26.47     0  01:16        0.45
  HS02003148           JUNCTION     0.17     0.83    22.57     0  01:15        0.83
  HS02003145           JUNCTION     0.21     0.81    14.68     0  01:12        0.81
  HS02003143           JUNCTION     0.30     0.80    13.27     0  01:02        0.80
  HS02003138           JUNCTION     0.46     0.83     7.33     0  02:18        0.83
  HS02003136           JUNCTION     1.17     2.28    10.00     0  00:00        2.28
  HS02003125           JUNCTION     1.34     2.40     9.85     0  00:46        2.36
  HS02003122           JUNCTION     1.38     2.54     9.97     0  01:15        2.54
  HS02003119           JUNCTION     1.16     2.47    10.18     0  01:16        2.46
  HS02003116           JUNCTION     0.88     2.43    10.55     0  00:46        2.11
  HS02003111           JUNCTION     0.45     1.31    10.33     0  01:16        1.28
  HS02003108           JUNCTION     0.36     1.38    10.49     0  01:15        1.32
  HS02003100           JUNCTION     0.25     1.52    10.75     0  01:15        1.28
  HS02003088           JUNCTION     0.20     1.68    10.97     0  01:15        1.33
  HS02003084           JUNCTION     0.09     1.64    11.07     0  01:15        1.19
  HS02003079           JUNCTION     0.06     1.60    11.11     0  01:15        1.12
  HS02003077           JUNCTION     0.02     1.48    11.22     0  01:15        0.88
  HS02003065           JUNCTION     0.55     1.68    10.91     0  01:18        1.67
  HS02003056           JUNCTION     0.56     1.77    10.72     0  01:15        1.77
  HS02003053           JUNCTION     0.39     1.66    10.96     0  01:11        1.66
  HS02003042           JUNCTION     0.28     1.62    11.28     0  01:11        1.48
  HS02003039           JUNCTION     0.32     1.74    11.40     0  01:11        1.58
  HS02003036           JUNCTION     0.18     1.41    11.47     0  01:11        1.41
  HS02003028           JUNCTION     0.27     1.40    11.14     0  01:10        1.40
  HS02003021           JUNCTION     0.28     1.55    10.92     0  01:09        1.49
  HS02003018           JUNCTION     0.29     1.48    10.69     0  01:09        1.48
  HS02003017           JUNCTION     0.30     1.48    10.64     0  01:09        1.48
  HS02003013           JUNCTION     0.29     1.47    10.52     0  01:09        1.42
  HS02003010           JUNCTION     0.31     1.42    10.22     0  01:09        1.30
  HS02003007           JUNCTION     0.27     1.30     9.91     0  01:09        1.09
  HS02003004           JUNCTION     0.34     1.05     9.36     0  01:09        0.98
  HS02003001           JUNCTION     0.10     0.34     8.63     0  01:17        0.34
  YS02001738           JUNCTION     0.00     0.00     8.89     0  00:00        0.00
  YS02001739           JUNCTION     0.00     0.00     8.37     0  00:00        0.00
  YS02001742           JUNCTION     0.00     0.00     8.49     0  00:00        0.00
  YS02001745           JUNCTION     0.13     0.96     8.48     0  01:16        0.94
  YS02001748           JUNCTION     0.18     2.27     9.35     0  01:15        1.31
  YS02001751           JUNCTION     0.19     2.20     9.08     0  01:15        1.44
  YS02001754           JUNCTION     0.22     2.20     8.81     0  01:15        2.19
  YS02001762           JUNCTION     0.39     2.15     8.55     0  01:14        2.15
  YS02001765           JUNCTION     0.38     2.10     8.55     0  01:14        2.10
  YS02001767           JUNCTION     0.39     2.03     8.52     0  01:14        2.03
  YS02001770           JUNCTION     0.44     1.95     8.44     0  01:14        1.95
  YS02001774           JUNCTION     0.51     2.02     8.45     0  01:14        2.00
  YS02001779           JUNCTION     0.27     1.68     8.37     0  01:14        1.68
  YS02001882           JUNCTION     0.65     1.71     8.43     0  01:16        1.71
  YS02001884           JUNCTION     0.74     1.81     8.43     0  01:17        1.81
  YS02001759           JUNCTION     0.39     2.21     8.57     0  01:14        2.21
  YS02001887           JUNCTION     0.82     1.90     8.43     0  01:16        1.88
  YS02001890           JUNCTION     0.85     1.81     8.32     0  01:08        1.81
  YS02001898           JUNCTION     0.61     1.57     8.31     0  01:08        1.56
  YS02001901           JUNCTION     0.73     1.68     8.29     0  01:08        1.67
  YS02001904           JUNCTION     0.70     1.64     8.27     0  01:08        1.63
  YS02001907           JUNCTION     1.03     1.96     8.25     0  01:08        1.96
  YS02001910           JUNCTION     0.85     2.01     8.52     0  01:22        2.01
  YS02001915           JUNCTION     0.68     2.00     8.72     0  01:15        2.00
  YS02001918           JUNCTION     0.43     1.81     8.88     0  01:10        1.81
  YS02001920           JUNCTION     0.52     2.11     9.11     0  01:15        2.03
  YS02001923           JUNCTION     0.36     2.03     9.29     0  01:15        1.94
  YS02001926           JUNCTION     0.38     1.90     9.35     0  01:15        1.90
  YS02001929           JUNCTION     0.26     1.78     9.47     0  01:15        1.78
  YS02001932           JUNCTION     0.17     1.77     9.57     0  01:15        1.77
  YS02001935           JUNCTION     0.13     1.75     9.68     0  01:15        1.64
  YS02001757           JUNCTION     0.37     2.10     8.36     0  01:14        2.10
  YS02001895           JUNCTION     0.61     1.57     8.32     0  01:08        1.56
  YS02005679           JUNCTION     0.00     0.02    10.27     0  01:16        0.02
  YS02005559           JUNCTION     0.09     0.29    10.24     0  01:18        0.29
  YS02005651           JUNCTION     0.06     0.22    10.99     0  01:15        0.22
  YS02005670           JUNCTION     0.06     0.28    10.73     0  01:16        0.28
  YS02005547           JUNCTION     0.04     0.18    10.72     0  01:16        0.18
  YS02005549           JUNCTION     0.06     0.59    11.50     0  01:15        0.47
  YS02005550           JUNCTION     0.09     0.64    11.27     0  01:17        0.63
  YS02005551           JUNCTION     0.05     0.17    10.55     0  01:17        0.17
  YS02005553           JUNCTION     0.11     0.56    10.92     0  01:17        0.55
  YS02005554           JUNCTION     0.05     0.17    10.41     0  01:18        0.17
  YS02005556           JUNCTION     0.11     0.47    10.52     0  01:18        0.46
  YS02005557           JUNCTION     0.06     0.17    10.14     0  01:18        0.17
  YS02005560           JUNCTION     0.07     0.19     9.94     0  01:18        0.19
  YS02005562           JUNCTION     0.10     0.37    10.11     0  01:16        0.34
  YS02005563           JUNCTION     0.06     0.17     9.83     0  01:18        0.17
  YS02005565           JUNCTION     0.10     0.42    10.13     0  01:16        0.41
  YS02005566           JUNCTION     0.08     0.23     9.62     0  01:18        0.23
  YS02005568           JUNCTION     0.14     0.94    10.44     0  01:16        0.82
  YS02005569           JUNCTION     0.10     0.74    10.07     0  01:16        0.47
  YS02005598           JUNCTION     0.18     1.07    10.91     0  01:10        1.07
  YS02005600           JUNCTION     0.17     1.02    10.68     0  01:11        1.02
  YS02005602           JUNCTION     0.38     2.15    10.43     0  01:11        2.15
  YS02005603           JUNCTION     0.12     1.16     9.29     0  01:11        0.58
  YS02005609           JUNCTION     0.07     0.58     9.47     0  01:16        0.39
  YS02005653           JUNCTION     0.11     0.87    11.84     0  01:15        0.87
  YS02005654           JUNCTION     0.11     0.65    11.41     0  01:20        0.64
  YS02005655           JUNCTION     0.05     0.15    10.78     0  01:15        0.15
  YS02005595           JUNCTION     0.26     1.36    11.04     0  01:08        1.36
  YS02005658           JUNCTION     0.10     0.81    11.71     0  01:17        0.80
  YS02005659           JUNCTION     0.05     0.18    10.83     0  01:17        0.18
  YS02005661           JUNCTION     0.12     0.93    11.64     0  01:15        0.93
  YS02005662           JUNCTION     0.04     0.16    10.78     0  01:15        0.16
  YS02005664           JUNCTION     0.12     0.88    11.46     0  01:17        0.88
  YS02005665           JUNCTION     0.04     0.14    10.71     0  01:17        0.14
  YS02005668           JUNCTION     0.04     0.16    10.33     0  01:17        0.16
  YS02005667           JUNCTION     0.27     1.16    11.18     0  01:17        1.15
  YS02005571           JUNCTION     0.18     0.92    10.40     0  01:15        0.92
  YS02005572           JUNCTION     0.12     0.71    10.06     0  01:15        0.56
  YS02005576           JUNCTION     0.13     0.73    10.49     0  01:15        0.73
  YS02005577           JUNCTION     0.11     0.74    10.22     0  01:15        0.51
  YS02005579           JUNCTION     0.25     1.12    10.74     0  01:14        1.12
  YS02005580           JUNCTION     0.16     0.90    10.44     0  01:14        0.69
  YS02005582           JUNCTION     0.25     0.86    10.94     0  01:12        0.86
  YS02005583           JUNCTION     0.13     0.79    10.79     0  01:12        0.41
  YS02005612           JUNCTION     0.39     1.59     9.72     0  01:14        1.59
  YS02005615           JUNCTION     0.04     0.18    11.67     0  01:16        0.17
  YS02005616           JUNCTION     0.04     0.14    10.96     0  01:16        0.14
  YS02005618           JUNCTION     0.07     0.48    11.34     0  01:15        0.47
  YS02005619           JUNCTION     0.04     0.16    10.71     0  01:16        0.16
  YS02005621           JUNCTION     0.07     0.53    11.64     0  01:15        0.49
  YS02005622           JUNCTION     0.03     0.13    11.09     0  01:16        0.13
  YS02005625           JUNCTION     0.03     0.12    11.13     0  01:16        0.12
  YS02005627           JUNCTION     0.09     0.59    11.52     0  01:16        0.58
  YS02005628           JUNCTION     0.03     0.13    11.03     0  01:16        0.13
  YS02005630           JUNCTION     0.09     0.68    11.75     0  01:16        0.67
  YS02005631           JUNCTION     0.04     0.15    11.02     0  01:17        0.15
  YS02005633           JUNCTION     0.08     0.71    11.84     0  01:16        0.70
  YS02005634           JUNCTION     0.04     0.16    11.00     0  01:16        0.16
  YS02005636           JUNCTION     0.10     0.89    11.88     0  01:17        0.88
  YS02005637           JUNCTION     0.05     0.19    10.95     0  01:17        0.19
  YS02005639           JUNCTION     0.09     0.76    11.39     0  01:16        0.76
  YS02005640           JUNCTION     0.05     0.19    10.52     0  01:17        0.19
  YS02005642           JUNCTION     0.08     1.11    11.94     0  01:15        1.11
  YS02005644           JUNCTION     0.13     0.87    11.98     0  01:14        0.87
  YS02005645           JUNCTION     0.07     0.22    11.03     0  01:15        0.22
  YS02005647           JUNCTION     0.19     1.03    11.92     0  01:14        1.03
  YS02005648           JUNCTION     0.07     0.23    11.02     0  01:14        0.23
  YS02005650           JUNCTION     0.13     1.02    11.91     0  01:15        1.02
  YS02005671           JUNCTION     0.03     0.12    10.34     0  01:16        0.12
  YS02005673           JUNCTION     0.07     0.67    11.02     0  01:15        0.44
  YS02005674           JUNCTION     0.04     0.17    10.06     0  01:16        0.17
  YS02005676           JUNCTION     0.00     0.03    10.27     0  01:16        0.02
  YS02005680           JUNCTION     0.04     0.16    10.26     0  01:16        0.16
  YS02005682           JUNCTION     0.00     0.00    10.06     0  00:00        0.00
  YS02005683           JUNCTION     0.03     0.10     9.99     0  01:16        0.10
  YS02005376           JUNCTION     0.58     1.01    11.10     0  00:46        1.01
  YS02005378           JUNCTION     1.05     1.62    11.14     0  01:08        1.62
  YS02005381           JUNCTION     0.94     1.57    11.20     0  00:46        1.57
  YS02005624           JUNCTION     0.21     0.65    11.53     0  01:16        0.64
  YS02005384           JUNCTION     0.30     0.71    10.36     0  00:46        0.53
  YS02005677           JUNCTION     0.05     0.18    10.26     0  01:16        0.18
  YSB1105              JUNCTION     0.25     1.59    11.07     0  01:16        0.82
  YSB1106              JUNCTION     0.23     1.50    11.34     0  01:16        1.05
  YSB1109              JUNCTION     0.29     1.70    11.64     0  01:16        1.33
  YSB1112              JUNCTION     0.30     1.95    12.08     0  01:16        1.60
  YSB1115              JUNCTION     0.27     1.90    12.20     0  01:13        1.54
  YSB1118              JUNCTION     0.28     1.77    12.31     0  01:13        1.56
  YSB1121              JUNCTION     0.33     1.70    12.37     0  01:13        1.70
  YSB1124              JUNCTION     0.21     1.60    12.43     0  01:13        1.55
  YSB1128              JUNCTION     0.34     1.85    12.43     0  01:05        1.85
  YSB1132              JUNCTION     0.38     1.90    12.35     0  01:05        1.90
  YSB1228              JUNCTION     0.05     0.19    11.04     0  01:16        0.19
  YSB1202              JUNCTION     0.68     1.50    12.39     0  01:02        1.46
  YSB1135              JUNCTION     0.47     2.00    12.26     0  01:05        1.96
  YSB1138              JUNCTION     0.55     1.90    12.07     0  01:05        1.90
  YSB1141              JUNCTION     0.58     1.98    11.81     0  01:05        1.98
  YSB1145              JUNCTION     0.59     1.95    11.64     0  01:05        1.94
  YSB1148              JUNCTION     0.64     1.94    11.44     0  01:05        1.94
  YSB1151              JUNCTION     0.82     2.02    11.25     0  01:05        2.00
  YSB1154              JUNCTION     0.97     2.10    11.16     0  01:10        2.10
  YSB1198              JUNCTION     0.17     1.60    12.39     0  01:06        1.18
  YSB1192              JUNCTION     0.32     1.90    12.17     0  01:06        1.70
  YSB6556              JUNCTION     0.81     1.80    10.97     0  01:05        1.80
  YSB1205              JUNCTION     0.85     1.65    12.35     0  01:02        1.65
  YSB1209              JUNCTION     0.85     1.65    12.22     0  01:11        1.65
  YSB1212              JUNCTION     0.77     1.60    12.13     0  01:12        1.60
  YSB1215              JUNCTION     0.78     1.69    12.04     0  01:39        1.69
  YSB1218              JUNCTION     0.80     1.75    11.94     0  01:12        1.75
  YSB1221              JUNCTION     0.76     1.87    11.83     0  01:16        1.60
  YSB1224              JUNCTION     0.69     1.88    11.73     0  01:16        1.38
  YSB1195              JUNCTION     0.28     1.90    12.28     0  01:06        1.59
  YSB1189              JUNCTION     0.40     1.80    11.96     0  01:06        1.80
  YSB1186              JUNCTION     0.44     1.95    11.82     0  01:06        1.74
  YSB1183              JUNCTION     0.54     2.05    11.64     0  01:06        1.88
  YSB1180              JUNCTION     0.56     1.95    11.46     0  01:06        1.83
  YSB1177              JUNCTION     0.81     2.05    11.24     0  01:06        2.02
  YSB1174              JUNCTION     0.87     1.95    11.06     0  01:06        1.95
  YSB1171              JUNCTION     1.04     1.95    10.85     0  01:05        1.95
  YS02006553           JUNCTION     1.03     2.01     8.29     0  01:15        2.00
  YS02006561           JUNCTION     0.34     1.01     7.67     0  01:08        0.95
  YS02006562           JUNCTION     0.80     1.86     8.37     0  01:16        1.85
  YS02006556           JUNCTION     1.00     2.03     8.34     0  01:16        2.03
  YS02006558           JUNCTION     1.04     2.10     8.37     0  01:16        2.10
  YS6132               JUNCTION     0.48     3.10    10.42     0  01:13        1.54
  YS6137               JUNCTION     0.26     2.34    10.13     0  01:22        1.57
  YS6189               JUNCTION     0.36     2.57    10.36     0  01:22        1.91
  YS6184               JUNCTION     0.36     2.65    10.54     0  01:20        2.19
  YS6179               JUNCTION     0.31     2.60    10.58     0  01:14        2.15
  YS6176               JUNCTION     0.24     2.37    10.57     0  01:22        1.96
  YS6171               JUNCTION     0.25     2.10    10.51     0  01:14        1.94
  YS6168               JUNCTION     0.27     2.00    10.51     0  01:14        2.00
  YS6164               JUNCTION     0.12     1.90    10.63     0  01:14        1.90
  YS6162               JUNCTION     0.18     2.10    10.75     0  01:14        2.10
  YS6187               JUNCTION     0.40     2.61    10.39     0  01:20        2.02
  YS6363               JUNCTION     0.29     2.83    10.62     0  01:22        1.34
  YS6360               JUNCTION     0.39     2.89    10.69     0  01:13        1.56
  YS6354               JUNCTION     0.38     2.60    10.75     0  01:13        2.04
  YS6351               JUNCTION     0.45     2.50    10.71     0  01:13        2.31
  YS6350               JUNCTION     0.50     2.50    10.72     0  01:13        2.49
  YS6348               JUNCTION     0.45     2.45    10.85     0  01:12        2.45
  YS6344               JUNCTION     0.30     2.40    10.99     0  01:26        2.26
  YS6375               JUNCTION     0.07     0.42     8.85     0  01:17        0.42
  YS6377               JUNCTION     0.13     0.48     8.84     0  01:17        0.48
  YS6381               JUNCTION     0.15     0.57     8.70     0  01:17        0.57
  YS6386               JUNCTION     0.17     0.66     8.64     0  01:17        0.66
  YS6390               JUNCTION     0.39     0.73     8.42     0  01:17        0.73
  YS6394               JUNCTION     0.09     0.32     8.24     0  01:17        0.32
  YS6404               JUNCTION     0.44     3.00    10.23     0  01:13        1.22
  YS6401               JUNCTION     0.14     0.43     7.64     0  01:20        0.42
  YS02004319           JUNCTION     0.25     1.18    20.80     0  01:06        1.18
  YS02004320           JUNCTION     0.00     0.00    22.64     0  01:28        0.00
  YS02004321           JUNCTION     0.00     0.00    26.80     0  01:21        0.00
  YS02004307           JUNCTION     0.14     0.53    11.06     0  01:13        0.52
  YS02004309           JUNCTION     0.59     1.55    13.07     0  00:55        1.55
  YS02004312           JUNCTION     0.39     1.48    14.91     0  01:04        1.48
  YS02004314           JUNCTION     0.29     1.28    16.99     0  01:06        1.28
  YS02004316           JUNCTION     0.29     1.36    19.13     0  01:06        1.36
  YS02001783           JUNCTION     0.53     1.31     7.46     0  01:08        1.27
  YS02001784           JUNCTION     0.52     1.16     7.23     0  01:15        1.15
  YS02001786           JUNCTION     0.43     0.91     6.94     0  01:08        0.89
  YS02001788           JUNCTION     0.31     0.63     6.60     0  01:16        0.62
  YS02001790           JUNCTION     0.36     0.72     6.37     0  01:12        0.72
  YS02001791           JUNCTION     0.23     0.44     5.91     0  01:20        0.43
  YS02001793           JUNCTION     0.12     0.28     5.11     0  01:25        0.27
  YS02003309           JUNCTION     0.49     1.21     9.77     0  00:42        1.05
  YS02003306           JUNCTION     0.58     1.16     9.60     0  00:42        1.16
  YS02003269           JUNCTION     0.12     0.17     7.76     0  01:08        0.17
  YS02003272           JUNCTION     0.32     0.73     8.46     0  00:43        0.59
  YS02003278           JUNCTION     0.62     1.21     9.13     0  01:22        1.21
  YS02003281           JUNCTION     0.67     1.39     9.47     0  01:08        1.39
  YS02003284           JUNCTION     0.76     1.40     9.41     0  01:07        1.40
  YS02003287           JUNCTION     0.71     1.27     9.34     0  00:55        1.27
  YS02003290           JUNCTION     0.59     1.11     9.40     0  01:11        1.11
  YS02003294           JUNCTION     0.73     1.24     9.42     0  00:43        1.24
  YS02003275           JUNCTION     0.47     0.92     8.83     0  01:30        0.91
  YS02003297           JUNCTION     0.71     1.22     9.43     0  00:43        1.22
  YS02003300           JUNCTION     0.65     1.15     9.42     0  00:42        1.15
  YS02003303           JUNCTION     0.64     1.14     9.46     0  00:42        1.14
  YSB1227              JUNCTION     0.01     0.14    11.04     0  01:16        0.13
  CaochengRainPumpOutfall1 OUTFALL      0.00     0.00     6.00     0  00:00        0.00
  JiankangRainPumpOutfall2 OUTFALL      0.00     0.00     6.00     0  00:00        0.00
  JiankangRainPumpOutfall1 OUTFALL      0.00     0.00     6.00     0  00:00        0.00
  CaochengRainPumpOutfall2 OUTFALL      0.00     0.00     6.00     0  00:00        0.00
  YS02005684           OUTFALL      0.03     0.10     8.50     0  01:16        0.10
  YS02005681           OUTFALL      0.04     0.16     9.38     0  01:16        0.16
  YS02005678           OUTFALL      0.05     0.18     8.72     0  01:16        0.18
  YS02005675           OUTFALL      0.04     0.17     8.71     0  01:17        0.17
  YS02005672           OUTFALL      0.03     0.12     8.45     0  01:16        0.12
  YS02005669           OUTFALL      0.04     0.16     8.88     0  01:17        0.16
  YS02005666           OUTFALL      0.04     0.14     8.82     0  01:17        0.14
  YS02005663           OUTFALL      0.04     0.16     8.89     0  01:16        0.16
  YS02005660           OUTFALL      0.05     0.18     8.99     0  01:17        0.18
  YS02005657           OUTFALL      0.00     0.00     8.74     0  00:00        0.00
  YS02005652           OUTFALL      0.06     0.22     8.84     0  01:15        0.22
  YS02005649           OUTFALL      0.07     0.23     8.93     0  01:14        0.23
  YS02005646           OUTFALL      0.06     0.22     8.22     0  01:15        0.22
  YS02005643           OUTFALL      0.07     0.30     8.86     0  01:15        0.30
  YS02005641           OUTFALL      0.05     0.19     8.88     0  01:17        0.19
  YS02005638           OUTFALL      0.05     0.19     8.85     0  01:17        0.19
  YS02005635           OUTFALL      0.04     0.16     8.83     0  01:17        0.16
  YS02005632           OUTFALL      0.04     0.15     8.71     0  01:17        0.15
  YS02005629           OUTFALL      0.03     0.13     8.60     0  01:16        0.12
  YS02005626           OUTFALL      0.03     0.12     8.64     0  01:16        0.11
  YS02005623           OUTFALL      0.03     0.13     8.61     0  01:16        0.13
  YS02005620           OUTFALL      0.04     0.16     8.95     0  01:16        0.16
  YS02005617           OUTFALL      0.04     0.14     8.98     0  01:16        0.14
  YSB1103              OUTFALL      0.24     0.60     8.60     0  01:13        0.60
  YSB1229              OUTFALL      0.04     0.19     8.99     0  01:16        0.19
  YS02005548           OUTFALL      0.04     0.18     9.18     0  01:16        0.18
  YS02005552           OUTFALL      0.05     0.17     8.80     0  01:17        0.17
  YS02005555           OUTFALL      0.05     0.17     8.90     0  01:18        0.17
  YS02005558           OUTFALL      0.06     0.17     8.87     0  01:18        0.17
  YS02005561           OUTFALL      0.06     0.19     8.87     0  01:18        0.19
  YS02005564           OUTFALL      0.06     0.17     8.64     0  01:18        0.17
  YS02005567           OUTFALL      0.08     0.23     8.76     0  01:18        0.23
  YS02005570           OUTFALL      0.09     0.30     9.02     0  01:15        0.30
  YS02005574           OUTFALL      0.10     0.30     9.14     0  01:15        0.30
  YS02005578           OUTFALL      0.09     0.30     9.08     0  01:15        0.30
  WS02005134           OUTFALL      0.00     0.00     8.74     0  00:00        0.00
  YS02005581           OUTFALL      0.11     0.30     9.10     0  01:14        0.30
  YS02005584           OUTFALL      0.11     0.30     9.26     0  01:12        0.30
  YS02005593           OUTFALL      0.20     0.28     9.00     0  01:27        0.28
  YS02005596           OUTFALL      0.12     0.30     8.84     0  01:08        0.30
  YS02005374           OUTFALL      0.10     0.30     8.54     0  01:10        0.30
  YS02005375           OUTFALL      0.10     0.30     8.69     0  01:10        0.30
  YS02005607           OUTFALL      0.10     0.30     7.53     0  01:10        0.30
  YS02005610           OUTFALL      0.07     0.27     8.88     0  01:17        0.27
  YS02005613           OUTFALL      0.11     0.30     8.58     0  01:13        0.30
  HS02003172           OUTFALL      0.16     0.55     6.00     0  01:18        0.55
  YS6395               OUTFALL      0.09     0.32     6.74     0  01:17        0.32
  YS6405               OUTFALL      0.14     0.41     3.86     0  01:17        0.41
  WSC                  OUTFALL      0.57     0.80     5.00     0  00:53        0.80
  JiankangQianchi      STORAGE      2.72     4.21     5.01     0  01:47        4.19
  CaochengTiaoxuchi    STORAGE      0.86     1.47     6.97     0  01:29        1.47
  XierchiQianchi       STORAGE      7.35     8.08     6.08     0  04:04        8.08
  
  
  *******************
  Node Inflow Summary
  *******************
  
  -------------------------------------------------------------------------------------------------
                                  Maximum  Maximum                  Lateral       Total        Flow
                                  Lateral    Total  Time of Max      Inflow      Inflow     Balance
                                   Inflow   Inflow   Occurrence      Volume      Volume       Error
  Node                 Type           LPS      LPS  days hr:min    10^6 ltr    10^6 ltr     Percent
  -------------------------------------------------------------------------------------------------
  WS02001211           JUNCTION      7.35   228.07     0  01:07       0.108        2.65       1.260
  WS02001212           JUNCTION      0.00   230.47     0  01:07           0        2.61       0.592
  WS02001213           JUNCTION      0.00   235.67     0  01:58           0         2.6       0.748
  WS02003069           JUNCTION      0.32  2522.01     0  01:14     0.00469          19       0.112
  WS02003072           JUNCTION      0.00  2522.08     0  01:14           0          19       0.129
  WS02003073           JUNCTION      1.82  3090.52     0  01:14      0.0267          25       0.059
  WS02003076           JUNCTION      0.00  3090.40     0  01:14           0          25       0.083
  WS02003060           JUNCTION     16.53  2521.97     0  01:14       0.242          19       0.106
  WS02003066           JUNCTION      0.00  2304.76     0  01:14           0        16.2       0.018
  WS02003059           JUNCTION      0.00   239.59     0  01:58           0        2.59       1.336
  WS02003115           JUNCTION      0.00   477.09     0  01:32           0        1.58      -0.021
  WS02003116           JUNCTION      0.06   237.28     0  03:12    0.000166        1.86       0.020
  WS02003118           JUNCTION      0.13   237.30     0  03:12    3.94e-06        1.86       0.033
  WS02003215           JUNCTION      0.16  3216.10     0  01:17     0.00022        4.71      -0.022
  WS02003110           JUNCTION      0.18   607.38     0  01:17     0.00264        0.91      -0.002
  WS02003111           JUNCTION      1.51  1085.65     0  01:17      0.0214        2.35      -0.011
  WS02005155           JUNCTION      0.38   607.19     0  01:17     0.00559       0.897       0.005
  WS02005154           JUNCTION    609.37   609.37     0  01:17       0.884       0.885       0.051
  WS02005193           JUNCTION      0.47    52.56     0  00:35      0.0015      0.0248       0.306
  WS02005196           JUNCTION      0.95    40.33     0  00:37     0.00334     0.00903       1.869
  WS02003067           JUNCTION      0.00  1879.13     0  01:13           0        13.1       0.050
  WS02004401           JUNCTION      0.00  1104.34     0  02:10           0        10.4       0.148
  WS02004402           JUNCTION      0.00  1104.54     0  02:09           0        10.4       0.146
  WS02004403           JUNCTION      0.00  1104.68     0  02:10           0        10.4       0.135
  WS02004404           JUNCTION      0.16  1104.55     0  02:10     0.00238        10.4       0.107
  WS02004406           JUNCTION      0.00  1104.77     0  02:10           0        10.4       0.260
  WS02004409           JUNCTION      0.26  1817.98     0  01:12     0.00102        14.1       0.062
  WS02004410           JUNCTION      0.00  1878.73     0  01:13           0        14.2       0.077
  WS02004411           JUNCTION      0.00  1878.73     0  01:13           0        13.2       0.090
  WS02004412           JUNCTION      0.00  1878.89     0  01:13           0        13.2       0.104
  WS02004413           JUNCTION      0.00  1878.90     0  01:13           0        13.1       0.164
  WS02004405           JUNCTION      0.20  1104.86     0  02:09     0.00109        10.4       0.154
  WS02006109           JUNCTION      1.95  1308.01     0  00:00      0.0193        11.4       0.125
  WS02006110           JUNCTION      0.38  1103.81     0  02:10     0.00055        10.5      -0.291
  WS02006111           JUNCTION      0.04  1176.04     0  00:00    1.72e-05        10.5      -0.343
  WS02006112           JUNCTION      0.48  2307.30     0  00:00    2.54e-05        10.6       0.051
  WS02006113           JUNCTION      0.16  1103.93     0  02:10    0.000109        10.5      -0.396
  WS02006115           JUNCTION      0.00  2155.86     0  00:00           0        10.4       0.086
  WS02006116           JUNCTION      0.43  1104.36     0  02:09     0.00145        10.4       0.064
  WS02006230           JUNCTION     11.30  1026.63     0  01:12       0.154        5.42       0.064
  WS02006231           JUNCTION      1.41   453.33     0  01:29     0.00727        3.46       0.126
  WS02006232           JUNCTION      1.31   453.65     0  01:38     0.00497        3.46       0.227
  WS02006234           JUNCTION      0.99   453.46     0  01:38     0.00404        3.45       0.024
  WS02006235           JUNCTION      1.41   415.17     0  01:23     0.00791        3.59       0.111
  WS02006238           JUNCTION      1.78   415.43     0  02:16     0.00904        3.24       0.001
  WS02006240           JUNCTION      0.00   415.05     0  01:23           0        3.23       0.058
  WS02006242           JUNCTION      2.37   415.12     0  01:23      0.0107        3.24       0.128
  WS02006243           JUNCTION      2.66   278.27     0  02:13      0.0136         2.5       0.023
  WS02006245           JUNCTION      2.40   279.07     0  02:29      0.0101        2.49       0.131
  WS02006247           JUNCTION      0.00   279.04     0  02:29           0        2.49       0.062
  WS02006248           JUNCTION      2.99   339.93     0  02:29     0.00774        3.01       0.030
  WS02006249           JUNCTION      0.11  1400.00     0  01:17    3.29e-06        7.28       0.049
  WS02006239           JUNCTION      1.71   415.19     0  01:23     0.00859        3.23      -0.006
  WS02006251           JUNCTION      1.86  1791.06     0  01:17     0.00853        7.67       0.005
  WS02006252           JUNCTION      0.00   791.23     0  01:17           0        2.61      -0.029
  WS02006253           JUNCTION     69.69  1791.07     0  01:17       0.102        6.28       0.026
  WS02006256           JUNCTION      0.00   300.00     0  00:39           0        2.84       0.012
  WS02004138           JUNCTION      0.00   190.00     0  00:29           0        2.56       0.116
  WS02004139           JUNCTION      0.32   190.32     0  00:33     0.00471        2.57       1.046
  WS02004407           JUNCTION      0.10  1817.19     0  01:12    0.000342        14.1       0.047
  WS02006228           JUNCTION      1.33  1289.35     0  01:13     0.00219        11.4       0.071
  WS02006229           JUNCTION      2.03  2305.90     0  01:12     0.00435        15.7       0.053
  WS02006280           JUNCTION      0.27  2305.81     0  01:13     0.00113        14.6       0.005
  WS02006284           JUNCTION      0.20  2305.27     0  01:13     0.00147        14.6       0.014
  WS02006287           JUNCTION      0.22  2305.36     0  01:12    0.000155        14.6       0.013
  WS02003091           JUNCTION      0.57  1194.64     0  00:00     0.00182        5.99      -0.767
  WS02003203           JUNCTION      0.31  2264.56     0  00:00    0.000153         8.6      -0.140
  WS6145               JUNCTION      0.36   218.94     0  01:11     0.00109       0.112       0.317
  WS6147               JUNCTION      0.00   219.47     0  01:11           0         0.1       0.203
  WS6150               JUNCTION      0.26   219.77     0  01:11      0.0016      0.0896       0.397
  WS6152               JUNCTION      0.65   220.14     0  01:11     0.00872      0.0775       0.502
  WS6155               JUNCTION      0.07   217.76     0  01:12    9.32e-05      0.0582       0.406
  WS6156               JUNCTION      0.74   226.06     0  01:12     0.00787       0.047       0.237
  WS6136               JUNCTION      0.17   684.70     0  01:12    5.46e-05        2.18      -0.000
  WS6140               JUNCTION      0.26   217.11     0  01:11     0.00029       0.132       0.099
  WS6142               JUNCTION      0.27   218.15     0  01:11    0.000387       0.122       0.181
  WS6325               JUNCTION      0.25    98.79     0  01:11    0.000404      0.0985       0.119
  WS6327               JUNCTION      0.23    98.51     0  01:11     0.00107      0.0894       0.127
  WS6329               JUNCTION      0.56    98.34     0  01:11     0.00396      0.0787       0.179
  WS6332               JUNCTION      0.40    98.59     0  01:11     0.00176      0.0642       0.145
  WS6158               JUNCTION      1.83   234.77     0  01:12       0.024      0.0287      -0.201
  WS6335               JUNCTION      0.74   100.02     0  01:11      0.0074      0.0514       0.329
  WS6338               JUNCTION      0.45   100.84     0  01:11     0.00239      0.0328       0.168
  WS6340               JUNCTION      0.35   101.23     0  01:11    0.000472      0.0188       0.229
  WS6342               JUNCTION      0.67   101.45     0  01:11     0.00627     0.00929      -0.865
  WS6135               JUNCTION      0.16   684.48     0  01:12    5.24e-05        2.29       0.098
  WS6396               JUNCTION      0.26   547.60     0  01:27    2.23e-05         2.2       0.027
  WS6399               JUNCTION      0.09   547.64     0  01:27    0.000304         2.2       0.008
  WS02003082           JUNCTION      0.52   589.65     0  01:00     0.00302        6.02       0.134
  WS02003077           JUNCTION      0.60   590.22     0  01:00      0.0088        6.02       0.050
  WS02003080           JUNCTION      0.00   589.63     0  01:00           0        6.01       0.034
  WS02003083           JUNCTION      0.00   589.53     0  01:00           0        6.02       0.022
  WS02003084           JUNCTION      0.04   589.55     0  01:00    0.000645        6.03       0.060
  WS02003085           JUNCTION      0.00   589.55     0  01:00           0        6.02      -0.023
  WS02003086           JUNCTION      0.49   664.19     0  00:01      0.0072        6.03       0.078
  WS02003087           JUNCTION      0.00  1079.03     0  00:00           0        6.02       0.044
  WS02003088           JUNCTION      0.55  2146.84     0  00:00     0.00309        6.05       0.083
  WS02003089           JUNCTION      0.31  1590.77     0  00:00    0.000892        6.03      -0.317
  WS02003090           JUNCTION      0.47  1148.82     0  00:00     0.00123        5.99      -0.534
  WS02003081           JUNCTION      0.22   589.64     0  01:00    0.000127        6.02       0.112
  WS02003122           JUNCTION      0.00   237.37     0  03:12           0        1.85       0.095
  WS02003187           JUNCTION    849.97  1027.04     0  01:17        1.37        3.18       0.119
  WS02003188           JUNCTION      0.50   403.49     0  01:25     0.00248        2.76       0.121
  WS02003190           JUNCTION      0.41   608.64     0  01:26    0.000426        4.01       0.154
  WS02003193           JUNCTION   1386.04  1649.69     0  01:17        2.18        4.03       0.173
  WS02003195           JUNCTION      0.39   318.54     0  00:01     0.00191        2.06       0.226
  WS02003196           JUNCTION      0.00   392.09     0  00:01           0        2.07       0.251
  WS02003198           JUNCTION    419.97   509.33     0  00:01       0.768        2.21       0.343
  WS02003200           JUNCTION      4.22   620.10     0  00:01      0.0577        1.59      -1.427
  WS02003201           JUNCTION      0.14   651.74     0  01:17    0.000161        3.23      -0.498
  WS02003202           JUNCTION      0.04   709.13     0  00:00    0.000186         3.2       0.098
  WS02004041           JUNCTION      0.50  3091.76     0  01:14     0.00733          25       0.024
  WSA6400              JUNCTION      0.09   547.97     0  01:28    0.000725         2.2       0.135
  WS6400               JUNCTION      0.00   547.72     0  01:28           0         2.2       0.005
  WSF208               JUNCTION      0.00   547.72     0  01:28           0         2.2       0.057
  WSF207               JUNCTION      1.60   549.28     0  01:27      0.0234        3.25       0.013
  WSF206               JUNCTION      0.00   447.11     0  01:12           0         3.1       0.022
  WSF205               JUNCTION      0.00   447.07     0  01:12           0         3.1       0.072
  WSF204               JUNCTION      0.00   447.10     0  01:12           0         3.1       0.295
  WSF203               JUNCTION      0.00   447.06     0  01:12           0        3.09       0.117
  WSF202               JUNCTION      1.27   448.48     0  01:12      0.0186        3.11       0.064
  WSF201               JUNCTION      0.00   448.56     0  01:12           0        3.11       0.039
  WSF200               JUNCTION      0.00  2307.65     0  01:14           0        16.2       0.014
  HS02004901           JUNCTION      0.20   265.79     0  01:44      0.0003       0.695       0.332
  HS02004881           JUNCTION    267.11  1721.61     0  01:17       0.406        6.15      -0.000
  HS02004876           JUNCTION    475.50  1521.21     0  01:26       0.798        5.75       0.038
  HS02004870           JUNCTION    489.13  1276.08     0  01:27        0.77        4.95       0.012
  HS02004862           JUNCTION    506.96  1379.78     0  01:18        1.06        4.54       0.011
  HS02004856           JUNCTION    365.30  1074.85     0  01:07        0.58        3.48       0.049
  HS02004852           JUNCTION      0.00  1036.28     0  01:07           0         2.9       0.025
  HS02004848           JUNCTION   1101.67  1101.67     0  01:19        2.53        3.45       0.010
  HS02004842           JUNCTION      0.17   825.17     0  01:07    1.02e-05        1.54       0.875
  HS02004837           JUNCTION    815.31   822.81     0  01:07        1.42        2.15       0.055
  HS02004830           JUNCTION      0.15   628.11     0  01:07      0.0022        1.66       0.105
  HS02004824           JUNCTION   1190.09  1786.89     0  01:19        2.48        3.73       0.024
  HS02004817           JUNCTION      0.78  1196.84     0  01:26     0.00887        3.01       0.581
  HS02004807           JUNCTION    901.55  2098.15     0  01:17         1.4        4.34       0.123
  HS02004802           JUNCTION      0.09  1233.41     0  01:25    3.98e-05        3.71       0.140
  HS02004799           JUNCTION    718.27  1860.37     0  01:17        1.15        8.95       0.055
  HS02004792           JUNCTION   3823.12  4811.55     0  01:17        7.15        11.5       0.008
  HS02004788           JUNCTION   1134.19  1134.19     0  01:18        2.02        4.39       0.016
  HS02004785           JUNCTION      0.15   587.18     0  01:04      0.0022        2.42       0.069
  HS02004777           JUNCTION      0.42   571.29     0  01:04      0.0017        2.43       0.263
  HS02004770           JUNCTION   3137.38  3295.45     0  01:18        5.48        5.54       0.073
  HS02004480           JUNCTION      0.30  2225.99     0  01:06    0.000825        11.3       0.024
  HS02004479           JUNCTION      0.41   723.18     0  01:06      0.0013           3       0.040
  HS02004478           JUNCTION      0.19  2306.31     0  01:13    0.000136        14.7       0.004
  HS02004053           JUNCTION      0.12  1042.49     0  01:12    2.95e-05        3.78      -0.015
  HS02004052           JUNCTION      0.30  1053.71     0  01:12    0.000177        3.78       0.008
  HS02004049           JUNCTION      0.51  1517.83     0  01:12     0.00378        4.36       0.003
  HS02004048           JUNCTION   1884.38  3157.58     0  01:17        2.72        5.19       0.004
  HS02004046           JUNCTION      0.92  1399.56     0  01:17      0.0117         2.5       0.049
  HS02004043           JUNCTION      1.70  1665.11     0  01:17       0.022        2.54       0.000
  HS02004041           JUNCTION      0.20  1774.95     0  01:17     0.00113        2.53       0.002
  HS02004038           JUNCTION   1774.90  1774.90     0  01:17        2.53        2.53       0.002
  HS02004036           JUNCTION      0.00     0.05     0  01:21           0    8.27e-06       8.274 ltr
  HS02004034           JUNCTION      0.07     0.07     0  01:18    8.31e-06    8.31e-06       0.035 ltr
  HS02004028           JUNCTION   1607.27  1607.27     0  01:16         2.2         2.2      -0.000
  HS02004027           JUNCTION      0.18   615.78     0  01:11    4.72e-05        1.81       0.001
  HS02004026           JUNCTION      0.15   616.33     0  01:11    3.68e-05        1.81       0.000
  HS02004024           JUNCTION      0.00   614.40     0  01:11           0        1.81       0.001
  HS02004022           JUNCTION    608.76  1208.91     0  01:16       0.878        2.69      -0.000
  HS02004021           JUNCTION      0.29   801.15     0  01:24     0.00335         2.5      -0.000
  HS02004019           JUNCTION      0.11  1523.59     0  01:10    3.23e-06        5.38       0.001
  HS02004018           JUNCTION    336.93  1120.09     0  01:16        0.42        3.19      -0.002
  HS02004017           JUNCTION      0.10  1604.10     0  01:14    3.06e-06        3.33       0.001
  HS02004013           JUNCTION   1550.87  2285.73     0  01:17        2.52        3.54      -0.002
  HS02004010           JUNCTION    738.17   738.17     0  01:16        1.03        1.03       0.001
  HS02003174           JUNCTION      0.00  3316.78     0  01:17           0        7.91       0.018
  HS02003171           JUNCTION    428.03  3203.60     0  01:17       0.723        7.02       0.035
  HS02003170           JUNCTION      0.00  2764.83     0  01:17           0         6.3       0.031
  HS02003168           JUNCTION      0.00  2773.39     0  01:17           0         6.3       0.017
  HS02003166           JUNCTION   1072.64  2756.82     0  01:17        1.94         6.3       0.013
  HS02003162           JUNCTION      0.19  1063.16     0  01:18    0.000107        4.75       0.002
  HS02003160           JUNCTION    963.48  2026.46     0  01:16        1.29        6.03       0.002
  HS02003150           JUNCTION      0.19  2022.95     0  01:16    0.000444        6.03       0.001
  HS02003148           JUNCTION   1062.29  3076.54     0  01:16        1.41        7.44      -0.001
  HS02003145           JUNCTION   1524.49  4154.29     0  01:15         2.2        9.55      -0.019
  HS02003143           JUNCTION      0.27  2652.34     0  01:12     0.00284        8.89      -0.014
  HS02003138           JUNCTION      0.41     0.41     0  01:27    0.000951    0.000951       0.000
  HS02003136           JUNCTION    612.82  2737.14     0  01:17       0.924         9.4      -0.235
  HS02003125           JUNCTION      0.41  3216.11     0  01:17     0.00601        4.53       0.014
  HS02003122           JUNCTION    590.96  3324.47     0  01:16       0.936        4.52       0.014
  HS02003119           JUNCTION   1642.27  2741.35     0  01:16         2.3        3.57      -0.007
  HS02003116           JUNCTION      0.06  1100.62     0  01:16    0.000807        1.24      -0.004
  HS02003111           JUNCTION      0.00   904.57     0  01:16           0        1.21       0.307
  HS02003108           JUNCTION      0.00   904.14     0  01:16           0        1.22       0.504
  HS02003100           JUNCTION      0.00   903.61     0  01:16           0        1.22       0.232
  HS02003088           JUNCTION    900.06   902.93     0  01:16        1.21        1.26       0.111
  HS02003084           JUNCTION      0.03   222.39     0  01:15    0.000469      0.0754       0.191
  HS02003079           JUNCTION      0.20   237.17     0  01:15     0.00235      0.0425       0.124
  HS02003077           JUNCTION      0.00   208.88     0  01:15           0      0.0117      -1.228
  HS02003065           JUNCTION      0.29  1192.19     0  01:02    0.000401        6.46      -0.004
  HS02003056           JUNCTION      0.00  2124.61     0  01:19           0        8.45       0.010
  HS02003053           JUNCTION    606.04  1353.27     0  01:17       0.921        2.04       0.011
  HS02003042           JUNCTION      0.00   748.12     0  01:17           0        1.12       0.040
  HS02003039           JUNCTION      0.00   748.03     0  01:17           0        1.11       0.035
  HS02003036           JUNCTION   1588.50  1588.50     0  01:17        2.41        2.41       0.013
[...]
  HS02004028HS02004027        0.01      0.25      0.01      0.27         0.01
  HS02003143HS02003065        0.79      0.79      1.08      0.01         0.01
  HS02004842HS02004848        0.81      0.81      1.08      0.01         0.01
  HS02004837HS02004842        0.86      0.86      1.08      0.01         0.01
  HS02004830HS02004837        0.86      0.86      0.92      0.01         0.01
  HS02004824HS02004830        0.92      0.92      0.98      0.01         0.01
  HS02004817HS02004824        0.98      0.98      2.32      0.01         0.01
  HS02004770HS02004777        0.99      0.99      1.00      0.01         0.02
  HS02004799HS02004480        1.19      1.19      1.31      1.33         0.01
  HS02004792HS02004799        1.12      1.12      1.31      0.01         0.01
  HS02004788HS02004792        0.92      0.92      1.12      0.01         0.01
  HS02004785HS02004788        0.92      0.94      0.92      2.17         0.74
  HS02004777HS02004785        0.94      0.94      1.00      0.01         0.01
  HS02004480HS02004478        1.11      1.19      1.11      2.80         1.11
  HS02004479HS02004480        1.20      1.20      1.25      0.01         0.01
  HS02003013HS02003010        0.52      0.52      0.57      0.36         0.36
  HS02003010HS02003007        0.50      0.50      0.51      0.55         0.50
  HS02003007HS02003004        0.51      0.51      0.61      0.31         0.31
  HS02003004HS02003001        0.01      0.61      0.01      1.46         0.01
  HS02003065HS02003056        1.07      1.07      1.26      0.01         0.01
  HS02003042HS02003053        0.44      0.44      1.00      0.01         0.01
  HS02003028HS02003021        0.36      0.36      0.45      0.01         0.01
  HS02003021HS02003018        0.48      0.48      0.50      0.20         0.20
  HS02003018HS02003017        0.50      0.50      0.51      0.10         0.09
  HS02003017HS02003013        0.51      0.51      0.52      0.42         0.41
  HS02004862HS02004870        0.89      0.89      0.92      0.31         0.31
  HS02004848HS02004852        0.81      0.81      0.85      0.03         0.01
  HS02004856HS02004862        0.83      0.83      0.89      0.01         0.01
  HS02004852HS02004856        0.85      0.85      0.88      0.02         0.01
  HS02004024HS02004022        0.01      0.01      0.30      0.01         0.01
  HS02004022HS02004021        0.30      0.30      0.43      0.01         0.01
  HS02004021HS02004019        0.43      0.43      0.56      0.35         0.35
  HS02004019HS02003162        0.01      0.56      0.01      0.60         0.01
  HS02004052HS02004053        0.29      0.29      0.29      0.31         0.29
  HS02003122HS02003125        2.41      2.41      2.42      0.27         0.31
  HS02003119HS02003122        2.34      2.34      2.43      0.01         0.01
  HS02003116HS02003119        1.71      1.71      2.33      0.01         0.01
  HS02003111HS02003116        0.01      0.01      1.80      0.01         0.01
  HS02004018HS02004019        0.36      0.36      0.56      0.01         0.01
  HS02003056HS02003136        1.10      1.10      2.34      0.01         0.01
  HS02004017HS02004018        0.34      0.34      0.36      0.01         0.01
  HS02004013HS02004017        0.14      0.14      0.34      0.16         0.14
  HS02004010HS02004013        0.01      0.01      0.14      0.01         0.01
  HS02004802HS02004478        1.12      1.12      1.22      0.33         0.01
  HS02004478WS02006287        0.95      0.95      1.20      0.01         0.01
  HS02003079HS02003084        0.07      0.07      0.08      0.01         0.01
  HS02003150HS02003148        0.01      0.01      0.07      0.01         0.01
  HS02003148HS02003145        0.07      0.07      0.24      0.02         0.01
  HS02003145HS02003143        0.24      0.24      0.76      0.23         0.21
  HS02003136WS02003203        2.39      2.39      2.66      0.01         0.01
  HS02003084HS02003088        0.09      0.09      0.12      0.01         0.01
  HS02003077HS02003079        0.03      0.03      0.07      0.01         0.01
  HS02003108HS02003111        0.28      0.28      0.55      0.05         0.05
  HS02003100HS02003108        0.15      0.15      0.28      0.01         0.01
  HS02003088HS02003100        0.13      0.13      0.15      0.08         0.07
  HS02004817HS02004807        1.17      1.17      2.32      0.01         0.01
  HS02004807HS02004802        1.17      1.17      1.20      0.52         0.53
  HS02003053HS02003056        1.00      1.00      1.26      0.01         0.01
  HS02003039HS02003042        0.52      0.53      0.57      0.35         0.02
  HS02003036HS02003039        0.30      0.30      0.36      0.06         0.06
  YS02001759YS02001757        0.28      0.28      0.30      0.26         0.22
  YS02001762YS02001759        0.27      0.27      0.28      0.18         0.16
  YS02001765YS02001762        0.27      0.27      0.27      0.07         0.07
  YS02001770YS02001767        0.27      0.29      0.27      0.92         0.26
  YS02001774YS02001770        0.27      0.27      0.31      0.01         0.01
  YS02001779YS02001774        0.24      0.24      0.31      0.01         0.01
  YS02001767YS02001765        0.26      0.27      0.27      0.25         0.20
  YS02006561YS02001783        0.65      0.65      0.88      0.01         0.01
  YS02001783YS02001784        0.85      0.88      0.85      1.10         0.85
  YS02001784YS02001785        0.71      0.85      0.71      1.56         0.71
  YS02001790YS02001791        0.01      0.01      0.01      0.83         0.01
  YS02001910YS02001907        0.92      0.92      1.21      0.17         0.16
  YS02001786YS02001788        0.01      0.71      0.01      1.31         0.01
  YS02001915YS02001910        0.81      0.81      0.92      0.01         0.02
  YS02001918YS02001915        0.70      0.70      0.81      0.01         0.01
  YS02001923YS02001920        0.62      0.62      0.72      0.01         0.01
  YS02001926YS02001923        0.30      0.30      0.33      0.12         0.01
  YS02001929YS02001926        0.18      0.18      0.33      0.01         0.01
  YS02001932YS02001929        0.15      0.15      0.18      0.01         0.01
  YS02001935YS02001932        0.07      0.07      0.14      0.01         0.01
  YS02001920YS02001918        0.70      0.70      0.72      0.01         0.01
  YS02003290YS02003287        2.10      2.10      2.50      0.01         0.01
  YS02003294YS02003290        2.12      2.12      2.57      0.08         0.01
  YS02003297YS02003294        2.52      2.52      2.53      0.39         0.39
  YS02003275YS02003272        1.75      1.94      1.75      2.40         1.75
  YS02003300YS02003297        2.22      2.22      2.45      0.01         0.01
  YS02003303YS02003300        2.07      2.07      2.32      0.01         0.01
  YS02005550YS02005551        0.01      0.13      0.01      0.18         0.01
  YS02005568YS02005569        0.12      0.31      0.12      0.42         0.12
  YS02005582YS02005583        0.46      0.73      0.46      0.98         0.46
  YS02003272YS02003269        0.01      1.86      0.01      2.41         0.01
  YS02003278YS02003275        2.01      2.54      2.01      2.91         2.01
  YS02003281YS02003278        2.33      2.33      2.51      1.99         1.99
  YS02003284YS02003281        2.33      2.33      2.52      1.48         0.49
  YS02003287YS02003284        2.46      2.46      2.57      0.02         0.09
  YS02003306YS02003303        2.00      2.00      2.21      0.66         0.66
  YS02003309YS02003306        1.84      1.84      2.00      0.01         0.01
  YS02005600YS02005375        0.30      0.30      0.31      0.31         0.30
  YS02005384YS02005593        0.01      1.79      0.01      1.86         0.01
  YS02005595YS02005596        0.43      0.45      0.43      0.47         0.43
  YS02005609YS02005610        0.01      0.06      0.01      0.08         0.01
  YS02005612YS02005613        0.21      0.21      1.36      0.46         0.01
  YS02005549YS02005547        0.01      0.04      0.01      0.06         0.01
  YS02005553YS02005554        0.01      0.20      0.01      0.34         0.01
  YS02005556YS02005557        0.01      0.20      0.01      0.40         0.01
  YS02005559YS02005560        0.01      0.01      0.01      0.16         0.01
  YS02005562YS02005563        0.01      0.09      0.01      0.36         0.01
  YS02005565YS02005566        0.01      0.13      0.01      0.18         0.01
  YS02005569YS02005570        0.12      0.12      0.14      0.14         0.12
  YS02005571YS02005572        0.25      0.42      0.25      0.57         0.25
  YS02005572YS02005574        0.20      0.25      0.20      0.28         0.20
  YS02005576YS02005577        0.18      0.24      0.18      0.29         0.18
  YS02005577YS02005578        0.17      0.18      0.18      0.20         0.17
  YS02005579YS02005580        0.40      0.59      0.40      0.80         0.40
  YS02005580YS02005581        0.37      0.39      0.37      0.42         0.37
  YS02005583YS02005584        0.46      0.46      0.47      0.47         0.46
  YS02006553YS02006556        1.05      1.05      1.25      0.01         0.01
  YS02006556YS02006558        1.15      1.15      1.30      0.01         0.01
  YSB6556YSB1171              1.37      1.37      2.52      0.01         0.01
  YSB1202YSB1205              1.85      1.85      1.99      0.01         0.01
  YSB1205YSB1209              1.99      1.99      2.00      1.18         1.12
  YSB1209YSB1212              1.91      2.00      1.91      2.31         1.91
  YSB1212YSB1215              1.91      1.91      1.97      0.77         0.75
  YSB1215YSB1218              1.97      1.97      2.01      0.87         0.85
  YSB1218YSB1221              1.89      1.89      2.04      1.57         1.57
  YSB1221YSB1224              2.04      2.04      2.07      1.88         1.88
  YSB1224YSB1105              1.35      2.19      1.35      2.49         1.35
  YSB1189YSB1186              0.84      0.84      0.97      0.27         0.27
  YS02001907YS02006553        1.58      1.58      1.71      0.01         0.03
  YS02006562YS02006558        0.88      0.88      1.30      0.01         0.01
  YS02006558YS02006561        0.74      1.04      0.74      1.48         0.74
  YS6184YS6187                0.26      0.26      0.27      0.17         0.19
  YS6360YS6363                0.23      0.26      0.23      0.99         0.22
  YS6354YS6360                0.32      0.33      0.34      0.33         0.30
  YS6351YS6354                0.33      0.37      0.33      0.60         0.33
  YS6350YS6351                0.37      0.39      0.37      1.02         0.36
  YS6348YS6350                0.37      0.37      0.39      0.30         0.29
  YS6344YS6348                0.38      0.38      0.45      0.01         0.01
  YS6363YS6132                0.23      0.23      0.38      0.01         0.01
  YS6137YS6132                0.30      0.30      0.52      0.05         0.04
  YS6189YS6137                0.30      0.30      0.32      2.02         0.01
  YS6187YS6189                0.25      0.25      0.27      0.43         0.01
  YS6179YS6184                0.23      0.24      0.26      0.01         0.01
  YS6176YS6179                0.17      0.17      0.24      0.01         0.01
  YS6171YS6176                0.19      0.19      0.23      0.05         0.06
  YS6168YS6171                0.18      0.18      0.19      0.15         0.15
  YS6164YS6168                0.15      0.15      0.18      0.01         0.01
  YS6162YS6164                0.18      0.18      0.19      0.01         0.01
  YS6132YS6404                0.02      0.28      0.02      0.43         0.02
  YSB1106YSB1105              0.14      0.28      0.14      0.33         0.14
  YSB1109YSB1106              0.28      0.34      0.28      0.51         0.28
  YSB1112YSB1109              0.34      0.35      0.34      0.38         0.34
  YSB1115YSB1112              0.33      0.33      0.35      0.11         0.11
  YSB1118YSB1115              0.36      0.36      0.36      0.38         0.36
  YSB1121YSB1118              0.36      0.39      0.36      0.51         0.36
  YSB1124YSB1121              0.35      0.35      0.39      0.01         0.01
  YSB1105YSB1103              0.22      0.22      0.26      0.26         0.22
  YS02001745YS02001748        0.01      0.01      0.05      0.01         0.01
  YS02001748YS02001751        0.08      0.08      0.12      0.01         0.01
  YS02001751YS02001754        0.12      0.12      0.18      0.01         0.01
  YS02001754YS02001757        0.19      0.19      0.30      0.01         0.01
  YS02001882YS02001884        0.81      0.81      0.82      0.01         0.01
  YS02001884YS02001887        0.85      0.85      0.87      0.01         0.01
  YS02001890YS02001895        0.80      0.80      0.92      0.01         0.01
  YS02001895YS02001898        0.79      0.79      0.80      0.01         0.01
  YS02001898YS02001901        0.80      0.80      0.85      0.01         0.01
  YS02001901YS02001904        0.84      0.84      0.85      0.01         0.01
  YS02001904YS02001907        0.84      0.84      1.26      0.01         0.01
  YS02001887YS02001890        0.89      0.89      0.90      0.27         0.01
  YS02004309YS02004307        0.26      1.29      0.26      1.26         0.26
  YS02004319YS02004316        0.51      0.51      0.53      0.01         0.01
  YS02005670YS02005671        0.01      0.01      0.01      0.04         0.01
  YS02005673YS02005674        0.01      0.04      0.01      0.05         0.01
  YS02005376YS02005378        2.33      2.33      3.08      0.01         0.01
  YS02005378YS02005381        2.82      2.82      3.08      0.54         0.01
  YS02005381YS02005384        1.79      1.79      2.82      2.95         0.01
  YS02005598YS02005374        0.32      0.32      0.34      0.34         0.32
  YS02005602YS02005603        0.27      0.65      0.27      0.82         0.27
  YS02005603YS02005607        0.27      0.27      0.29      0.29         0.27
  YS02005618YS02005619        0.01      0.04      0.01      0.07         0.01
  YS02005621YS02005622        0.01      0.05      0.01      0.11         0.01
  YS02005624YS02005625        0.01      0.01      0.33      0.08         0.01
  YS02005630YS02005631        0.01      0.10      0.01      0.14         0.01
  YS02005633YS02005634        0.01      0.09      0.01      0.12         0.01
  YS02005636YS02005637        0.01      0.13      0.01      0.18         0.01
  YS02005639YS02005640        0.01      0.11      0.01      0.14         0.01
  YS02005642YS02005643        0.06      0.06      0.07      0.07         0.06
  YS02005627YS02005628        0.01      0.09      0.01      0.34         0.01
  YS02005644YS02005645        0.01      0.22      0.01      0.25         0.01
  YS02005650YS02005651        0.01      0.21      0.01      0.31         0.01
  YS02005653YS02005654        0.18      0.18      0.19      0.19         0.18
  YS02005654YS02005655        0.01      0.19      0.01      0.29         0.01
  YS02005658YS02005659        0.01      0.13      0.01      0.17         0.01
  YS02005661YS02005662        0.01      0.18      0.01      0.31         0.01
  YS02005664YS02005665        0.01      0.19      0.01      0.62         0.01
  YS02005667YS02005668        0.01      0.01      0.71      0.22         0.01
  YS02005647YS02005648        0.01      0.39      0.01      0.57         0.01
  YS02004312YS02004309        0.84      0.84      1.29      0.01         0.01
  YS02004314YS02004312        0.57      0.57      0.84      0.01         0.01
  YS02004316YS02004314        0.53      0.53      0.57      0.45         0.45
  YS02004320YS02004319        0.01      0.01      0.41      0.01         0.01
  YS6404YS6401                0.01      0.02      0.01      0.97         0.01
  YSB1132YSB1135              0.84      0.84      0.90      0.01         0.01
  YSB1135YSB1138              0.90      0.90      0.94      0.01         0.01
  YSB1138YSB1141              0.94      0.94      1.06      0.58         0.58
  YSB1141YSB1145              1.03      1.03      1.06      0.56         0.52
  YSB1148YSB1151              1.17      1.17      1.54      0.01         0.01
  YSB1151YSB1154              1.31      1.31      1.78      0.01         0.01
  YSB1154YSB6556              1.37      1.37      1.78      0.60         0.01
  YSB1128YSB1132              0.81      0.81      0.84      0.01         0.01
  YSB1145YSB1148              1.06      1.06      1.17      0.01         0.01
  YSB1198YSB1195              0.40      0.40      0.77      0.01         0.01
  YSB1195YSB1192              0.77      0.77      0.80      0.01         0.01
  YSB1192YSB1189              0.80      0.80      0.84      0.01         0.01
  YSB1186YSB1183              0.91      0.91      1.06      0.01         0.01
  YSB1183YSB1180              1.06      1.06      1.11      0.31         0.32
  YSB1180YSB1177              1.11      1.11      1.60      0.01         0.01
  YSB1177YSB1174              1.60      1.60      1.97      0.32         0.33
  YSB1174YSB1171              1.53      1.53      2.33      0.26         0.26
  YSB1171HS02004479           1.16      1.16      1.74      0.01         0.01
  HS02003001HS02003166        0.01      0.01      0.12      0.01         0.01
  YS02004307HS02004052        0.01      0.01      0.29      0.01         0.01
  HS02004881HS02006253        0.99      0.99      2.47      0.01         0.01
  WS0200404049WS6136          0.28      0.28      0.39      0.01         0.01
  HS02003125WS02003215        2.42      2.42      2.52      0.01         0.01
  YS02001793JiankangQianchi        0.01      0.01      4.06      0.01         0.01
  YS02001757CaochengTiaoxuchi        0.30      0.30      0.74      0.19         0.18
  WS02004041WS6409            1.51      1.51      1.62      1.62         1.51
  WSF200WS02003060            0.39      0.39      0.74      0.01         0.01
  HS02004053WS02004407        0.29      0.29      1.54      0.01         0.01
  HS02003036HS02003028        0.30      0.30      0.43      0.03         0.03
  
  
  ***************
  Pumping Summary
  ***************
  
  ---------------------------------------------------------------------------------------------------------
                                                  Min       Avg       Max     Total     Power    % Time Off
                        Percent   Number of      Flow      Flow      Flow    Volume     Usage    Pump Curve
  Pump                 Utilized   Start-Ups       LPS       LPS       LPS  10^6 ltr     Kw-hr    Low   High
  ---------------------------------------------------------------------------------------------------------
  CaochengSewagePump1     50.57           1      0.00    200.00    200.00     1.483     11.37    0.0    0.0
  CaochengSewagePump2     25.34           1      0.00    200.00    200.00     0.743      6.18    0.0    0.0
  CaochengRainPump1       23.59           1      0.00    683.00    683.00     2.363      4.20    0.0   30.2
  CaochengRainPump2       21.49           1      0.00    683.00    683.00     2.153      3.74    0.0   33.1
  JiankangSewagePump      64.49           1      0.00    300.00    300.00     2.837     45.15    0.0    0.0
  JiankangRainPump1       23.98           6      0.00   1000.00   1000.00     3.517     24.43    0.0    0.0
  JiankangRainPump2        0.00           0      0.00      0.00      0.00     0.000      0.00    0.0    0.0
  XierchiSewagePump1      95.89           1      0.00     95.00     95.00     1.336      7.01    0.0    0.0
  XierchiSewagePump2      88.13           1      0.00     95.00     95.00     1.228      6.17    0.0    0.0
  XierchiSewagePump3       0.00           0      0.00      0.00      0.00     0.000      0.00    0.0    0.0
  XierchiSewagePump4       0.00           0      0.00      0.00      0.00     0.000      0.00    0.0    0.0
  

  Analysis begun on:  Sun Jul 31 08:41:37 2022
  Analysis ended on:  Sun Jul 31 09:36:45 2022
  Total elapsed time: 00:55:08