
  EPA STORM WATER MANAGEMENT MODEL - VERSION 5.1 (Build 5.3.0.dev0)
  --------------------------------------------------------------

  WARNING 04: minimum elevation drop used for Conduit WS02004404WS02004405
  WARNING 03: negative offset ignored for Link YS02001904YS02001907
  
  *********************************************************
  NOTE: The summary statistics displayed in this report are
  based on results found at every computational time step,  
  not just on results from each reporting time step.
  *********************************************************
  
  ****************
  Analysis Options
  ****************
  Flow Units ............... LPS
  Process Models:
    Rainfall/Runoff ........ YES
    RDII ................... NO
    Snowmelt ............... NO
    Groundwater ............ NO
    Flow Routing ........... YES
    Ponding Allowed ........ NO
    Water Quality .......... NO
  Infiltration Method ...... HORTON
  Flow Routing Method ...... DYNWAVE
  Surcharge Method ......... EXTRAN
  Starting Date ............ 03/31/2017 00:00:00
  Ending Date .............. 03/31/2017 03:00:00
  Antecedent Dry Days ...... 8.0
  Report Time Step ......... 00:00:30
  Wet Time Step ............ 00:01:00
  Dry Time Step ............ 00:01:00
  Routing Time Step ........ 30.00 sec
  Variable Time Step ....... YES
  Maximum Trials ........... 8
  Number of Threads ........ 6
  Head Tolerance ........... 0.001500 m
  
  
  **************************        Volume         Depth
  Runoff Quantity Continuity     hectare-m            mm
  **************************     ---------       -------
  Total Precipitation ......        11.461        97.262
  Evaporation Loss .........         0.000         0.000
  Infiltration Loss ........         0.308         2.615
  Surface Runoff ...........        10.491        89.031
  Final Storage ............         0.676         5.733
  Continuity Error (%) .....        -0.121
  
  
  **************************        Volume        Volume
  Flow Routing Continuity        hectare-m      10^6 ltr
  **************************     ---------     ---------
  Dry Weather Inflow .......         0.171         1.707
  Wet Weather Inflow .......        10.460       104.603
  Groundwater Inflow .......         0.000         0.000
  RDII Inflow ..............         0.000         0.000
  External Inflow ..........         0.034         0.338
  External Outflow .........         5.390        53.902
  Flooding Loss ............         5.024        50.240
  Evaporation Loss .........         0.000         0.000
  Exfiltration Loss ........         0.000         0.000
  Initial Stored Volume ....         0.303         3.031
  Final Stored Volume ......         0.583         5.834
  Continuity Error (%) .....        -0.270
  
  
  *************************
  Highest Continuity Errors
  *************************
  Node WS02005193 (58.00%)
  Node YS02001884 (28.42%)
  Node YS02004320 (5.12%)
  Node WS02003059 (5.03%)
  Node HS02003116 (4.82%)
  
  
  ***************************
  Time-Step Critical Elements
  ***************************
  Link YS02005655YS02005657 (48.78%)
  Link WS02006252WS02006251 (20.84%)
  Link WS02004041WS6409 (11.45%)
  Link WS02006280WS02006229 (2.02%)
  Link WS02003073WS02003076 (2.02%)
  
  
  ********************************
  Highest Flow Instability Indexes
  ********************************
  Link WS02006238WS02006235 (74)
  Link WS02003215WS02003116 (74)
  Link WS02003122WS02003187 (73)
  Link WS02003200WS02003201 (67)
  Link WS02004404WS02004405 (67)
  
  
  *************************
  Routing Time Step Summary
  *************************
  Minimum Time Step           :     0.50 sec
  Average Time Step           :     0.94 sec
  Maximum Time Step           :    30.00 sec
  Percent in Steady State     :    -0.00
  Average Iterations per Step :     6.56
  Percent Not Converging      :    43.09
  
  
  ***************************
  Subcatchment Runoff Summary
  ***************************
  
  ------------------------------------------------------------------------------------------------------------------------------
                            Total      Total      Total      Total     Imperv       Perv      Total       Total     Peak  Runoff
                           Precip      Runon       Evap      Infil     Runoff     Runoff     Runoff      Runoff   Runoff   Coeff
  Subcatchment                 mm         mm         mm         mm         mm         mm         mm    10^6 ltr      LPS
  ------------------------------------------------------------------------------------------------------------------------------
  sub0                      97.26       0.00       0.00       0.49      51.36       3.35      94.69        0.08    54.78   0.974
  sub1                      97.26       0.00       0.00       1.16      82.69       8.81      91.50        0.61   402.94   0.941
  sub2                      97.26       0.00       0.00       3.89      58.09      25.55      83.65        0.78   417.69   0.860
  sub3                      97.26       0.00       0.00       3.89      57.37      23.75      81.12        1.83   904.43   0.834
  sub4                      97.26       0.00       0.00       1.16      79.84       8.42      88.26        1.84   988.23   0.907
  sub5                      97.26       0.00       0.00       0.70      81.63       5.36      92.37        1.05   697.64   0.950
  sub6                      97.26       0.00       0.00       0.72      83.58       5.49      91.43        2.36  1487.43   0.940
  sub7                      97.26       0.00       0.00       0.87      76.95       6.60      93.15        0.31   226.75   0.958
  sub8                      97.26       0.00       0.00       0.90      79.89       6.85      92.70        0.59   415.78   0.953
  sub9                      97.26       0.00       0.00       0.88      78.11       6.70      92.72        0.45   310.99   0.953
  sub10                     97.26       0.00       0.00       0.81      81.25       6.14      92.40        1.02   687.66   0.950
  sub11                     97.26       0.00       0.00       0.80      80.92       6.11      92.93        1.08   766.13   0.955
  sub12                     97.26       0.00       0.00       1.34      80.46      10.36      92.78        0.81   615.82   0.954
  sub13                     97.26       0.00       0.00       3.53      60.86      25.40      87.69        1.04   655.90   0.902
  sub14                     97.26       0.00       0.00       0.90      79.57       6.82      92.59        0.88   610.91   0.952
  sub15                     97.26       0.00       0.00       2.99      61.20      21.41      88.67        1.53   964.66   0.912
  sub16                     97.26       0.00       0.00       3.21      57.29      23.46      89.61        0.94   645.49   0.921
  sub17                     97.26       0.00       0.00       3.17      59.43      23.20      89.48        0.77   522.94   0.920
  sub18                     97.26       0.00       0.00       0.90      79.92       6.85      93.22        0.74   547.89   0.958
  sub19                     97.26       0.00       0.00       3.15      62.03      23.08      89.28        0.28   191.22   0.918
  sub20                     97.26       0.00       0.00       0.91      81.31       6.97      92.92        0.65   468.38   0.955
  sub21                     97.26       0.00       0.00       1.16      74.53       8.77      93.03        0.47   349.94   0.957
  sub22                     97.26       0.00       0.00       4.52      53.43      31.62      85.04        5.37  3170.88   0.874
  sub23                     97.26       0.00       0.00       3.83      57.89      27.49      87.36        4.17  2627.08   0.898
  sub24                     97.26       0.00       0.00       1.38      74.39      10.41      92.60        3.32  2436.85   0.952
  sub25                     97.26       0.00       0.00       0.73      87.16       5.70      94.03        1.22   968.62   0.967
  sub26                     97.26       0.00       0.00       2.47      70.26      18.98      91.91        1.31  1047.84   0.945
  sub27                     97.26       0.00       0.00       0.93      83.52       7.16      92.26        1.33   913.65   0.949
  sub28                     97.26       0.00       0.00       0.82      83.74       6.33      92.38        1.45   986.73   0.950
  sub29                     97.26       0.00       0.00       0.84      84.51       6.40      90.90        1.46   902.46   0.935
  sub30                     97.26       0.00       0.00       0.83      85.20       6.43      93.49        2.11  1606.03   0.961
  sub31                     97.26       0.00       0.00       1.54      64.97      11.43      92.99        1.97  1484.00   0.956
  sub32                     97.26       0.00       0.00       0.82      84.02       6.34      93.04        1.85  1349.58   0.957
  sub33                     97.26       0.00       0.00       1.28      75.62       9.74      93.06        1.70  1290.99   0.957
  sub34                     97.26       0.00       0.00       5.07      45.35      37.24      86.82        1.94  1306.16   0.893
  sub35                     97.26       0.00       0.00       0.76      77.73       5.86      94.56        0.33   276.38   0.972
  sub36                     97.26       0.00       0.00       2.31      74.05      17.86      91.91        0.80   628.70   0.945
  sub37                     97.26       0.00       0.00       4.01      56.37      30.38      89.48        0.68   516.78   0.920
  sub38                     97.26       0.00       0.00       3.54      58.93      26.95      90.47        1.72  1350.37   0.930
  sub39                     97.26       0.00       0.00       0.84      87.44       6.59      94.03        1.00   821.02   0.967
  sub40                     97.26       0.00       0.00       0.82      85.10       6.42      94.13        1.10   898.81   0.968
  sub41                     97.26       0.00       0.00       1.62      75.87      12.43      92.85        1.79  1394.29   0.955
  sub42                     97.26       0.00       0.00       0.90      81.66       7.00      93.96        0.94   755.51   0.966
  sub43                     97.26       0.00       0.00       3.09      42.18      21.61      90.53        0.74   508.26   0.931
  sub44                     97.26       0.00       0.00       0.71      82.44       5.40      92.73        1.05   722.30   0.953
  sub45                     97.26       0.00       0.00       1.74      75.35      13.15      91.51        1.68  1174.24   0.941
  sub46                     97.26       0.00       0.00       6.32      33.17      45.27      83.82        0.59   352.98   0.862
  sub47                     97.26       0.00       0.00       0.80      81.34       6.14      93.21        0.71   520.41   0.958
  sub48                     97.26       0.00       0.00       0.90      80.38       6.89      93.00        0.71   514.71   0.956
  sub49                     97.26       0.00       0.00       0.82      83.64       6.32      92.67        0.85   593.40   0.953
  sub50                     97.26       0.00       0.00       0.84      85.38       6.45      92.64        0.65   457.88   0.953
  sub51                     97.26       0.00       0.00       0.82      83.37       6.29      93.29        0.44   327.15   0.959
  sub52                     97.26       0.00       0.00       0.70      81.08       5.31      92.89        1.01   701.00   0.955
  sub53                     97.26       0.00       0.00       0.80      81.53       6.16      93.15        0.94   684.93   0.958
  sub54                     97.26       0.00       0.00       0.73      85.20       5.59      92.07        0.55   363.57   0.947
  sub55                     97.26       0.00       0.00       0.81      81.93       6.19      92.42        0.74   500.32   0.950
  sub56                     97.26       0.00       0.00       1.87      68.66      13.42      89.84        1.28   783.02   0.924
  sub57                     97.26       0.00       0.00       3.12      60.92      22.10      88.01        0.57   350.90   0.905
  sub58                     97.26       0.00       0.00       7.68      25.53      48.08      73.61        2.72  1184.68   0.757
  sub59                     97.26       0.00       0.00       8.10      21.68      44.82      66.49        1.52   580.49   0.684
  sub60                     97.26       0.00       0.00       1.23      79.82       9.38      92.38        1.21   869.23   0.950
  sub61                     97.26       0.00       0.00       1.76      76.46      13.37      91.69        1.68  1207.92   0.943
  sub62                     97.26       0.00       0.00       0.84      84.79       6.41      92.03        2.52  1681.41   0.946
  sub67                     97.26       0.00       0.00       0.80      81.04       6.12      92.48        1.72  1169.19   0.951
  sub68                     97.26       0.00       0.00       1.34      71.17       9.93      92.16        2.54  1747.15   0.948
  sub71                     97.26       0.00       0.00       0.82      82.02       6.21      91.29        2.39  1497.30   0.939
  sub72                     97.26       0.00       0.00       0.69      78.62       5.18      90.72        1.25   735.22   0.933
  sub73                     97.26       0.00       0.00       1.74      55.23      12.59      93.01        0.09    68.07   0.956
  sub74                     97.26       0.00       0.00       2.96      54.98      21.91      91.01        0.15   109.08   0.936
  sub75                     97.26       0.00       0.00       2.77      56.35      20.55      91.48        0.20   153.12   0.941
  sub76                     97.26       0.00       0.00       1.64      65.07      12.26      92.91        0.23   171.99   0.955
  sub77                     97.26       0.00       0.00       1.57      66.97      11.80      93.12        0.15   113.74   0.957
  sub78                     97.26       0.00       0.00       1.26      73.85       9.51      93.04        0.26   191.94   0.957
  sub79                     97.26       0.00       0.00       2.23      61.25      16.41      91.63        0.24   171.44   0.942
  sub80                     97.26       0.00       0.00       3.15      56.21      23.35      90.55        0.27   195.68   0.931
  sub81                     97.26       0.00       0.00       3.54      53.05      25.99      89.55        0.27   193.49   0.921
  sub82                     97.26       0.00       0.00       3.56      53.41      26.29      89.76        0.27   194.90   0.923
  sub83                     97.26       0.00       0.00       3.69      53.30      27.44      89.72        0.30   221.40   0.922
  sub84                     97.26       0.00       0.00       3.43      56.23      25.19      89.44        0.49   338.29   0.920
  sub85                     97.26       0.00       0.00       2.01      53.43      14.33      92.12        0.41   291.61   0.947
  sub86                     97.26       0.00       0.00       2.48      61.82      18.36      91.20        0.44   318.63   0.938
  sub87                     97.26       0.00       0.00       3.44      56.68      25.59      89.84        0.27   195.22   0.924
  sub88                     97.26       0.00       0.00       3.35      57.66      24.98      90.09        0.27   201.47   0.926
  sub89                     97.26       0.00       0.00       2.99      58.69      22.38      91.04        0.24   183.90   0.936
  sub90                     97.26       0.00       0.00       2.62      62.53      19.66      91.44        0.22   170.44   0.940
  sub91                     97.26       0.00       0.00       2.49      58.79      18.59      92.05        0.17   128.97   0.946
  sub92                     97.26       0.00       0.00       2.77      53.57      20.59      91.86        0.14   108.20   0.944
  sub93                     97.26       0.00       0.00       2.86      55.69      21.41      91.76        0.17   132.90   0.943
  sub94                     97.26       0.00       0.00       2.85      55.44      21.24      91.53        0.20   152.03   0.941
  sub95                     97.26       0.00       0.00       2.37      48.90      17.10      92.37        0.14   104.47   0.950
  sub96                     97.26       0.00       0.00       1.71      50.27      12.22      93.44        0.17   132.13   0.961
  sub97                     97.26       0.00       0.00       6.37      37.02      49.16      86.99        0.20   166.46   0.894
  sub98                     97.26       0.00       0.00       7.01      24.28      51.28      84.23        0.27   175.16   0.866
  sub99                     97.26       0.00       0.00       7.89      18.78      55.20      79.85        0.28   145.27   0.821
  sub100                    97.26       0.00       0.00       7.89      18.74      52.80      77.43        0.27   126.97   0.796
  sub101                    97.26       0.00       0.00       7.91      18.80      52.71      77.08        0.26   120.38   0.792
  sub102                    97.26       0.00       0.00       7.52      21.10      48.32      76.30        0.23   104.64   0.785
  sub103                    97.26       0.00       0.00       7.81      19.64      49.12      74.29        0.35   152.71   0.764
  sub104                    97.26       0.00       0.00       7.83      19.67      48.65      73.69        0.39   165.10   0.758
  sub105                    97.26       0.00       0.00       8.21      17.22      50.95      72.44        0.41   168.77   0.745
  sub106                    97.26       0.00       0.00       7.92      18.79      51.26      75.56        0.39   171.26   0.777
  sub107                    97.26       0.00       0.00       8.21      17.28      55.02      76.54        0.54   246.41   0.787
  sub108                    97.26       0.00       0.00       8.37      16.56      59.05      79.03        0.74   374.09   0.813
  sub109                    97.26       0.00       0.00       6.60      33.43      47.69      83.36        1.19   715.13   0.857
  sub110                    97.26       0.00       0.00       1.85      74.95      14.06      92.00        1.93  1440.62   0.946
  sub111                    97.26       0.00       0.00       2.67      67.98      20.19      90.83        0.78   574.41   0.934
  sub112                    97.26       0.00       0.00       2.10      70.16      15.90      91.84        0.72   543.64   0.944
  sub113                    97.26       0.00       0.00       1.42      77.74      10.89      92.75        0.64   486.24   0.954
  sub114                    97.26       0.00       0.00       1.31      78.26      10.08      92.93        0.62   467.99   0.956
  sub115                    97.26       0.00       0.00       1.21      79.05       9.30      93.00        0.68   517.68   0.956
  sub116                    97.26       0.00       0.00       3.92      51.83      28.44      88.41        0.16   110.80   0.909
  sub117                    97.26       0.00       0.00       4.15      53.18      30.55      88.28        0.40   279.31   0.908
  

  ***********************
  LID Performance Summary
  ***********************

  --------------------------------------------------------------------------------------------------------------------
                                         Total      Evap     Infil   Surface    Drain    Initial     Final  Continuity
                                        Inflow      Loss      Loss   Outflow   Outflow   Storage   Storage       Error
  Subcatchment      LID Control             mm        mm        mm        mm        mm        mm        mm           %
  --------------------------------------------------------------------------------------------------------------------
  sub0              VegetativeSwale      97.26      0.00      0.15     95.24      0.00      0.00      1.95       -0.08
  sub5              VegetativeSwale      97.26      0.00      0.15     95.24      0.00      0.00      1.95       -0.08
  sub6              VegetativeSwale      97.26      0.00      0.15     95.24      0.00      0.00      1.95       -0.08
  sub7              VegetativeSwale      97.26      0.00      0.19     95.20      0.00      0.00      1.95       -0.08
  sub8              VegetativeSwale      97.26      0.00      0.19     95.20      0.00      0.00      1.95       -0.08
  sub9              VegetativeSwale      97.26      0.00      0.19     95.20      0.00      0.00      1.95       -0.08
  sub10             VegetativeSwale      97.26      0.00      0.17     95.22      0.00      0.00      1.95       -0.08
  sub11             VegetativeSwale      97.26      0.00      0.17     95.22      0.00      0.00      1.95       -0.08
  sub12             VegetativeSwale      97.26      0.00      0.27     95.12      0.00      0.00      1.95       -0.08
  sub13             VegetativeSwale      97.26      0.00      0.71     94.69      0.00      0.00      1.93       -0.08
  sub14             VegetativeSwale      97.26      0.00      0.19     95.20      0.00      0.00      1.95       -0.08
  sub15             VegetativeSwale      97.26      0.00      0.63     94.78      0.00      0.00      1.94       -0.08
  sub16             VegetativeSwale      97.26      0.00      0.69     94.71      0.00      0.00      1.93       -0.08
  sub17             VegetativeSwale      97.26      0.00      0.67     94.74      0.00      0.00      1.93       -0.08
  sub18             VegetativeSwale      97.26      0.00      0.19     95.20      0.00      0.00      1.95       -0.08
  sub19             VegetativeSwale      97.26      0.00      0.65     94.76      0.00      0.00      1.94       -0.08
  sub20             VegetativeSwale      97.26      0.00      0.19     95.20      0.00      0.00      1.95       -0.08
  sub21             VegetativeSwale      97.26      0.00      0.25     95.14      0.00      0.00      1.95       -0.08
  sub23             VegetativeSwale      97.26      0.00      0.78     94.63      0.00      0.00      1.93       -0.08
  sub24             VegetativeSwale      97.26      0.00      0.30     95.10      0.00      0.00      1.95       -0.08
  sub25             VegetativeSwale      97.26      0.00      0.15     95.24      0.00      0.00      1.95       -0.08
  sub26             VegetativeSwale      97.26      0.00      0.51     94.90      0.00      0.00      1.94       -0.08
  sub27             VegetativeSwale      97.26      0.00      0.19     95.20      0.00      0.00      1.95       -0.08
  sub28             VegetativeSwale      97.26      0.00      0.17     95.22      0.00      0.00      1.95       -0.08
  sub30             VegetativeSwale      97.26      0.00      0.17     95.22      0.00      0.00      1.95       -0.08
  sub31             VegetativeSwale      97.26      0.00      0.36     95.04      0.00      0.00      1.95       -0.08
  sub32             VegetativeSwale      97.26      0.00      0.17     95.22      0.00      0.00      1.95       -0.08
  sub33             VegetativeSwale      97.26      0.00      0.27     95.12      0.00      0.00      1.95       -0.08
  sub34             VegetativeSwale      97.26      0.00      1.05     94.37      0.00      0.00      1.92       -0.08
  sub35             VegetativeSwale      97.26      0.00      0.17     95.22      0.00      0.00      1.95       -0.08
  sub37             VegetativeSwale      97.26      0.00      0.82     94.59      0.00      0.00      1.93       -0.08
  sub38             VegetativeSwale      97.26      0.00      0.74     94.67      0.00      0.00      1.93       -0.08
  sub40             VegetativeSwale      97.26      0.00      0.17     95.22      0.00      0.00      1.95       -0.08
  sub41             VegetativeSwale      97.26      0.00      0.34     95.06      0.00      0.00      1.95       -0.08
  sub42             VegetativeSwale      97.26      0.00      0.19     95.20      0.00      0.00      1.95       -0.08
  sub43             VegetativeSwale      97.26      0.00      0.80     94.61      0.00      0.00      1.93       -0.08
  sub44             VegetativeSwale      97.26      0.00      0.15     95.24      0.00      0.00      1.95       -0.08
  sub45             VegetativeSwale      97.26      0.00      0.36     95.04      0.00      0.00      1.95       -0.08
  sub46             VegetativeSwale      97.26      0.00      1.32     94.11      0.00      0.00      1.91       -0.08
  sub47             VegetativeSwale      97.26      0.00      0.17     95.22      0.00      0.00      1.95       -0.08
  sub48             VegetativeSwale      97.26      0.00      0.19     95.20      0.00      0.00      1.95       -0.08
  sub49             VegetativeSwale      97.26      0.00      0.17     95.22      0.00      0.00      1.95       -0.08
  sub50             VegetativeSwale      97.26      0.00      0.17     95.22      0.00      0.00      1.95       -0.08
  sub51             VegetativeSwale      97.26      0.00      0.17     95.22      0.00      0.00      1.95       -0.08
  sub52             VegetativeSwale      97.26      0.00      0.15     95.24      0.00      0.00      1.95       -0.08
  sub53             VegetativeSwale      97.26      0.00      0.17     95.22      0.00      0.00      1.95       -0.08
  sub54             VegetativeSwale      97.26      0.00      0.15     95.24      0.00      0.00      1.95       -0.08
  sub55             VegetativeSwale      97.26      0.00      0.17     95.22      0.00      0.00      1.95       -0.08
  sub56             VegetativeSwale      97.26      0.00      0.40     95.00      0.00      0.00      1.94       -0.08
  sub57             VegetativeSwale      97.26      0.00      0.65     94.76      0.00      0.00      1.94       -0.08
  sub60             VegetativeSwale      97.26      0.00      0.25     95.14      0.00      0.00      1.95       -0.08
  sub61             VegetativeSwale      97.26      0.00      0.36     95.04      0.00      0.00      1.95       -0.08
  sub62             VegetativeSwale      97.26      0.00      0.17     95.22      0.00      0.00      1.95       -0.08
  sub67             VegetativeSwale      97.26      0.00      0.17     95.22      0.00      0.00      1.95       -0.08
  sub68             VegetativeSwale      97.26      0.00      0.30     95.10      0.00      0.00      1.95       -0.08
  sub71             VegetativeSwale      97.26      0.00      0.17     95.22      0.00      0.00      1.95       -0.08
  sub72             VegetativeSwale      97.26      0.00      0.15     95.24      0.00      0.00      1.95       -0.08
  sub73             VegetativeSwale      97.26      0.00      0.44     94.96      0.00      0.00      1.94       -0.08
  sub74             VegetativeSwale      97.26      0.00      0.67     94.74      0.00      0.00      1.93       -0.08
  sub75             VegetativeSwale      97.26      0.00      0.63     94.78      0.00      0.00      1.94       -0.08
  sub76             VegetativeSwale      97.26      0.00      0.38     95.02      0.00      0.00      1.95       -0.08
  sub77             VegetativeSwale      97.26      0.00      0.36     95.04      0.00      0.00      1.95       -0.08
  sub78             VegetativeSwale      97.26      0.00      0.27     95.12      0.00      0.00      1.95       -0.08
  sub79             VegetativeSwale      97.26      0.00      0.51     94.90      0.00      0.00      1.94       -0.08
  sub80             VegetativeSwale      97.26      0.00      0.69     94.71      0.00      0.00      1.93       -0.08
  sub81             VegetativeSwale      97.26      0.00      0.78     94.63      0.00      0.00      1.93       -0.08
  sub82             VegetativeSwale      97.26      0.00      0.78     94.63      0.00      0.00      1.93       -0.08
  sub83             VegetativeSwale      97.26      0.00      0.80     94.61      0.00      0.00      1.93       -0.08
  sub84             VegetativeSwale      97.26      0.00      0.74     94.67      0.00      0.00      1.93       -0.08
  sub85             VegetativeSwale      97.26      0.00      0.51     94.90      0.00      0.00      1.94       -0.08
  sub86             VegetativeSwale      97.26      0.00      0.55     94.86      0.00      0.00      1.94       -0.08
  sub87             VegetativeSwale      97.26      0.00      0.74     94.67      0.00      0.00      1.93       -0.08
  sub88             VegetativeSwale      97.26      0.00      0.71     94.69      0.00      0.00      1.93       -0.08
  sub89             VegetativeSwale      97.26      0.00      0.65     94.76      0.00      0.00      1.94       -0.08
  sub90             VegetativeSwale      97.26      0.00      0.57     94.84      0.00      0.00      1.94       -0.08
  sub91             VegetativeSwale      97.26      0.00      0.57     94.84      0.00      0.00      1.94       -0.08
  sub92             VegetativeSwale      97.26      0.00      0.65     94.76      0.00      0.00      1.94       -0.08
  sub93             VegetativeSwale      97.26      0.00      0.65     94.76      0.00      0.00      1.94       -0.08
  sub94             VegetativeSwale      97.26      0.00      0.65     94.76      0.00      0.00      1.94       -0.08
  sub95             VegetativeSwale      97.26      0.00      0.61     94.80      0.00      0.00      1.94       -0.08
  sub96             VegetativeSwale      97.26      0.00      0.46     94.94      0.00      0.00      1.94       -0.08
  sub97             VegetativeSwale      97.26      0.00      1.28     94.15      0.00      0.00      1.91       -0.08
  sub98             VegetativeSwale      97.26      0.00      1.51     93.93      0.00      0.00      1.90       -0.08
  sub99             VegetativeSwale      97.26      0.00      1.65     93.80      0.00      0.00      1.90       -0.08
  sub100            VegetativeSwale      97.26      0.00      1.65     93.80      0.00      0.00      1.90       -0.08
  sub101            VegetativeSwale      97.26      0.00      1.65     93.80      0.00      0.00      1.90       -0.08
  sub102            VegetativeSwale      97.26      0.00      1.59     93.86      0.00      0.00      1.90       -0.08
  sub103            VegetativeSwale      97.26      0.00      1.63     93.82      0.00      0.00      1.90       -0.08
  sub104            VegetativeSwale      97.26      0.00      1.63     93.82      0.00      0.00      1.90       -0.08
  sub105            VegetativeSwale      97.26      0.00      1.69     93.76      0.00      0.00      1.90       -0.09
  sub106            VegetativeSwale      97.26      0.00      1.65     93.80      0.00      0.00      1.90       -0.08
  sub107            VegetativeSwale      97.26      0.00      1.69     93.76      0.00      0.00      1.90       -0.09
  sub108            VegetativeSwale      97.26      0.00      1.71     93.74      0.00      0.00      1.90       -0.09
  sub109            VegetativeSwale      97.26      0.00      1.34     94.09      0.00      0.00      1.91       -0.08
  sub110            VegetativeSwale      97.26      0.00      0.38     95.02      0.00      0.00      1.95       -0.08
  sub111            VegetativeSwale      97.26      0.00      0.55     94.86      0.00      0.00      1.94       -0.08
  sub112            VegetativeSwale      97.26      0.00      0.44     94.96      0.00      0.00      1.94       -0.08
  sub113            VegetativeSwale      97.26      0.00      0.30     95.10      0.00      0.00      1.95       -0.08
  sub114            VegetativeSwale      97.26      0.00      0.27     95.12      0.00      0.00      1.95       -0.08
  sub115            VegetativeSwale      97.26      0.00      0.25     95.14      0.00      0.00      1.95       -0.08
  sub116            VegetativeSwale      97.26      0.00      0.84     94.57      0.00      0.00      1.93       -0.08
  sub117            VegetativeSwale      97.26      0.00      0.86     94.55      0.00      0.00      1.93       -0.08
  
  ******************
  Node Depth Summary
  ******************
  
  ---------------------------------------------------------------------------------
                                 Average  Maximum  Maximum  Time of Max    Reported
                                   Depth    Depth      HGL   Occurrence   Max Depth
  Node                 Type       Meters   Meters   Meters  days hr:min      Meters
  ---------------------------------------------------------------------------------
  WS02001211           JUNCTION     1.07     2.20     7.04     0  00:46        1.78
  WS02001212           JUNCTION     0.84     1.88     6.95     0  00:46        1.55
  WS02001213           JUNCTION     1.08     2.13     6.89     0  00:46        1.86
  WS02003069           JUNCTION     1.02     1.69     6.28     0  00:50        1.68
  WS02003072           JUNCTION     1.08     1.59     5.96     0  00:50        1.58
  WS02003073           JUNCTION     1.29     1.71     5.77     0  00:50        1.70
  WS02003076           JUNCTION     1.02     1.36     5.58     0  00:50        1.36
  WS02003060           JUNCTION     0.91     1.68     6.61     0  00:50        1.67
  WS02003066           JUNCTION     0.55     1.17     6.72     0  00:50        1.16
  WS02003059           JUNCTION     1.15     1.93     6.62     0  00:50        1.92
  WS02003115           JUNCTION     2.08     2.76     9.62     0  00:31        2.73
  WS02003116           JUNCTION     2.23     3.03     9.74     0  00:23        2.94
  WS02003118           JUNCTION     2.22     2.90     9.52     0  00:22        2.90
  WS02003215           JUNCTION     2.11     2.80     9.66     0  00:31        2.80
  WS02003110           JUNCTION     1.71     2.39     9.64     0  00:52        2.38
  WS02003111           JUNCTION     1.83     2.35     9.44     0  00:31        2.35
  WS02005155           JUNCTION     1.69     2.53     9.84     0  00:51        2.52
  WS02005154           JUNCTION     1.46     2.47    10.10     0  00:51        2.46
  WS02005193           JUNCTION     1.57     3.15    10.97     0  00:44        3.03
  WS02005196           JUNCTION     1.54     3.31    11.16     0  00:27        3.01
  WS02003067           JUNCTION     0.88     1.48     6.80     0  00:50        1.48
  WS02004401           JUNCTION     1.56     2.53     8.53     0  00:48        2.46
  WS02004402           JUNCTION     1.55     2.55     8.51     0  00:48        2.47
  WS02004403           JUNCTION     1.54     2.54     8.47     0  00:48        2.47
  WS02004404           JUNCTION     1.58     2.60     8.45     0  00:48        2.53
  WS02004406           JUNCTION     1.52     2.53     8.36     0  00:48        2.49
  WS02004409           JUNCTION     1.29     2.32     8.09     0  00:48        2.31
  WS02004410           JUNCTION     1.18     2.10     7.82     0  00:50        2.09
  WS02004411           JUNCTION     1.09     1.88     7.56     0  00:50        1.87
  WS02004412           JUNCTION     0.98     1.65     7.29     0  00:50        1.64
  WS02004413           JUNCTION     1.01     1.56     7.03     0  00:50        1.54
  WS02004405           JUNCTION     1.56     2.57     8.42     0  00:48        2.51
  WS02006109           JUNCTION     2.03     2.64     9.26     0  00:42        2.64
  WS02006110           JUNCTION     1.84     2.49     9.07     0  00:48        2.48
  WS02006111           JUNCTION     1.24     2.00     8.71     0  00:48        1.99
  WS02006112           JUNCTION     1.86     2.68     8.56     0  00:00        2.68
  WS02006113           JUNCTION     1.32     2.00     8.89     0  00:48        1.99
  WS02006115           JUNCTION     1.53     2.43     8.57     0  00:48        2.38
  WS02006116           JUNCTION     1.58     2.52     8.56     0  00:48        2.45
  WS02006230           JUNCTION     2.10     2.65     9.39     0  00:37        2.65
  WS02006231           JUNCTION     1.69     2.19     9.31     0  01:17        2.19
  WS02006232           JUNCTION     1.72     2.18     9.22     0  00:37        2.18
  WS02006234           JUNCTION     1.55     1.96     9.12     0  00:36        1.96
  WS02006235           JUNCTION     1.52     1.93     9.10     0  01:33        1.93
  WS02006238           JUNCTION     1.53     1.94     9.08     0  01:02        1.93
  WS02006240           JUNCTION     1.31     1.63     8.92     0  00:44        1.62
  WS02006242           JUNCTION     1.28     1.55     8.82     0  00:25        1.55
  WS02006243           JUNCTION     1.11     1.48     8.90     0  00:26        1.36
  WS02006245           JUNCTION     1.04     1.27     8.75     0  01:15        1.27
  WS02006247           JUNCTION     1.02     1.23     8.73     0  01:23        1.22
  WS02006248           JUNCTION     0.92     1.10     8.69     0  00:26        1.10
  WS02006249           JUNCTION     0.93     1.09     8.69     0  00:26        1.09
  WS02006239           JUNCTION     1.42     1.79     9.00     0  00:36        1.78
  WS02006251           JUNCTION     1.43     2.21     9.88     0  00:44        2.18
  WS02006252           JUNCTION     0.98     1.50     9.74     0  00:44        1.50
  WS02006253           JUNCTION     1.74     3.22    10.86     0  00:51        3.20
  WS02006256           JUNCTION     1.90     2.35     9.28     0  00:16        2.35
  WS02004138           JUNCTION     0.12     0.14     7.39     0  00:33        0.14
  WS02004139           JUNCTION     1.00     2.17     7.08     0  00:46        1.71
  WS02004407           JUNCTION     0.95     2.05     8.37     0  00:48        1.96
  WS02006228           JUNCTION     2.27     3.03     9.68     0  00:45        3.02
  WS02006229           JUNCTION     2.38     3.23     9.92     0  00:49        3.22
  WS02006280           JUNCTION     1.08     1.75    10.02     0  00:53        1.74
  WS02006284           JUNCTION     1.24     1.95    10.35     0  00:52        1.94
  WS02006287           JUNCTION     0.98     1.74    10.70     0  00:59        1.73
  WS02003091           JUNCTION     3.03     4.43    10.23     0  00:00        3.91
  WS02003203           JUNCTION     2.97     3.83     9.82     0  00:00        3.83
  WS6145               JUNCTION     0.54     2.33    10.44     0  00:49        2.31
  WS6147               JUNCTION     0.46     2.26    10.53     0  00:49        2.16
  WS6150               JUNCTION     0.45     2.23    10.56     0  00:49        2.13
  WS6152               JUNCTION     0.45     2.20    10.54     0  00:49        2.14
  WS6155               JUNCTION     0.42     2.10    10.50     0  00:49        2.10
  WS6156               JUNCTION     0.39     2.05    10.52     0  00:49        2.05
  WS6136               JUNCTION     0.46     1.90    10.85     0  00:49        1.90
  WS6140               JUNCTION     0.60     2.46    10.40     0  00:50        2.44
  WS6142               JUNCTION     0.54     2.34    10.42     0  00:50        2.33
  WS6325               JUNCTION     0.83     2.74    10.39     0  00:50        2.73
  WS6327               JUNCTION     0.69     2.58    10.39     0  00:50        2.57
  WS6329               JUNCTION     0.63     2.52    10.40     0  00:50        2.50
  WS6332               JUNCTION     0.55     2.53    10.56     0  00:48        2.35
  WS6158               JUNCTION     0.37     2.05    10.59     0  00:49        2.05
  WS6335               JUNCTION     0.54     2.60    10.67     0  00:48        2.32
  WS6338               JUNCTION     0.48     2.55    10.75     0  00:48        2.19
  WS6340               JUNCTION     0.43     2.50    10.84     0  00:48        2.05
  WS6342               JUNCTION     0.34     2.50    11.10     0  00:48        2.02
  WS6135               JUNCTION     0.99     2.89    10.39     0  00:50        2.88
  WS6396               JUNCTION     0.64     2.02     9.57     0  00:50        2.01
  WS6399               JUNCTION     0.40     1.37     8.80     0  00:50        1.36
  WS02003082           JUNCTION     1.45     2.12     7.19     0  00:28        1.93
  WS02003077           JUNCTION     0.52     0.84     5.85     0  00:50        0.84
  WS02003080           JUNCTION     0.95     1.30     6.24     0  00:50        1.29
  WS02003083           JUNCTION     1.85     2.76     7.79     0  00:28        2.40
  WS02003084           JUNCTION     2.00     3.03     8.13     0  00:28        2.60
  WS02003085           JUNCTION     2.09     3.18     8.35     0  00:28        2.71
  WS02003086           JUNCTION     2.34     3.45     8.65     0  00:28        3.01
  WS02003087           JUNCTION     2.62     3.74     8.95     0  00:28        3.35
  WS02003088           JUNCTION     2.83     4.14     9.43     0  00:00        4.07
  WS02003089           JUNCTION     2.96     4.34     9.80     0  00:00        4.02
  WS02003090           JUNCTION     3.18     4.43     9.86     0  00:28        4.05
  WS02003081           JUNCTION     1.18     1.63     6.67     0  00:28        1.60
  WS02003122           JUNCTION     2.40     3.30     9.67     0  00:22        3.10
  WS02003187           JUNCTION     2.43     3.11     9.44     0  00:22        3.11
  WS02003188           JUNCTION     2.39     2.97     9.23     0  00:22        2.97
  WS02003190           JUNCTION     2.36     2.84     9.04     0  00:22        2.84
  WS02003193           JUNCTION     2.35     2.85     9.09     0  00:21        2.85
  WS02003195           JUNCTION     2.39     2.93     9.18     0  00:21        2.93
  WS02003196           JUNCTION     2.51     3.31     9.49     0  00:22        3.20
  WS02003198           JUNCTION     2.55     3.25     9.44     0  00:28        3.22
  WS02003200           JUNCTION     2.32     3.11     9.54     0  00:28        2.93
  WS02003201           JUNCTION     2.59     3.22     9.36     0  00:28        3.22
  WS02003202           JUNCTION     2.75     4.17    10.23     0  00:00        3.48
  WS02004041           JUNCTION     0.69     0.98     5.34     0  00:50        0.98
  WSA6400              JUNCTION     1.27     2.43     8.27     0  00:50        2.41
  WS6400               JUNCTION     0.59     1.70     8.35     0  00:50        1.68
  WSF208               JUNCTION     0.95     1.95     8.04     0  00:50        1.95
  WSF207               JUNCTION     0.83     1.70     7.83     0  00:50        1.69
  WSF206               JUNCTION     0.90     1.74     7.68     0  00:50        1.73
  WSF205               JUNCTION     0.83     1.62     7.52     0  00:50        1.61
  WSF204               JUNCTION     1.35     2.18     7.33     0  00:50        2.16
  WSF203               JUNCTION     0.71     1.37     7.08     0  00:50        1.36
  WSF202               JUNCTION     0.62     1.20     6.93     0  00:50        1.18
  WSF201               JUNCTION     0.53     1.05     6.77     0  00:50        1.04
  WSF200               JUNCTION     0.71     1.45     6.69     0  00:50        1.45
  HS02004901           JUNCTION     0.81     1.42    11.24     0  00:42        1.42
  HS02004881           JUNCTION     0.68     2.15    11.18     0  00:44        1.94
  HS02004876           JUNCTION     0.82     2.19    11.22     0  00:52        2.19
  HS02004870           JUNCTION     0.72     2.10    11.39     0  00:44        2.06
  HS02004862           JUNCTION     0.72     2.00    11.38     0  00:44        2.00
  HS02004856           JUNCTION     0.75     2.07    11.50     0  00:45        2.04
  HS02004852           JUNCTION     0.69     2.12    11.63     0  00:45        1.98
  HS02004848           JUNCTION     0.67     2.07    11.67     0  00:45        1.92
  HS02004842           JUNCTION     0.98     2.22    11.49     0  00:45        2.22
  HS02004837           JUNCTION     0.69     1.95    11.53     0  00:45        1.93
  HS02004830           JUNCTION     0.77     2.02    11.49     0  00:45        1.99
  HS02004824           JUNCTION     0.82     2.01    11.41     0  00:45        2.01
  HS02004817           JUNCTION     1.29     2.43    11.27     0  00:45        2.41
  HS02004807           JUNCTION     0.96     1.92    11.09     0  00:45        1.92
  HS02004802           JUNCTION     0.96     1.80    10.93     0  00:48        1.80
  HS02004799           JUNCTION     1.05     1.76    10.97     0  00:45        1.76
  HS02004792           JUNCTION     0.86     1.60    11.12     0  00:42        1.60
  HS02004788           JUNCTION     0.66     1.42    11.32     0  00:42        1.40
  HS02004785           JUNCTION     0.70     1.49    11.39     0  00:42        1.38
  HS02004777           JUNCTION     0.82     1.48    11.28     0  00:42        1.46
  HS02004770           JUNCTION     0.80     1.42    11.25     0  00:42        1.42
  HS02004480           JUNCTION     0.95     1.68    10.92     0  00:45        1.64
  HS02004479           JUNCTION     0.99     1.69    10.90     0  00:45        1.66
  HS02004478           JUNCTION     0.84     1.59    10.82     0  00:49        1.58
  HS02004053           JUNCTION     0.34     1.90    10.67     0  00:48        1.09
  HS02004052           JUNCTION     0.42     1.50    11.15     0  00:48        1.38
  HS02004049           JUNCTION     0.25     1.02    11.70     0  00:49        0.86
  HS02004048           JUNCTION     0.57     1.70    12.60     0  00:47        1.70
  HS02004046           JUNCTION     0.52     1.80    13.52     0  00:50        1.80
  HS02004043           JUNCTION     0.33     2.24    14.93     0  00:50        2.24
  HS02004041           JUNCTION     0.19     1.99    17.43     0  00:50        1.46
  HS02004038           JUNCTION     0.15     0.45    19.14     0  00:52        0.45
  HS02004036           JUNCTION     0.00     0.00    22.46     0  00:00        0.00
  HS02004034           JUNCTION     0.00     0.00    26.83     0  00:00        0.00
  HS02004028           JUNCTION     0.22     0.51    37.36     0  00:47        0.51
  HS02004027           JUNCTION     0.17     0.34    36.47     0  00:47        0.34
  HS02004026           JUNCTION     0.17     0.35    35.75     0  00:47        0.34
  HS02004024           JUNCTION     0.18     0.41    34.63     0  00:47        0.40
  HS02004022           JUNCTION     0.27     0.80    33.84     0  00:47        0.80
  HS02004021           JUNCTION     0.31     0.81    32.54     0  00:44        0.81
  HS02004019           JUNCTION     0.38     0.80    31.76     0  00:43        0.80
  HS02004018           JUNCTION     0.26     0.60    33.81     0  00:47        0.60
  HS02004017           JUNCTION     0.24     0.53    34.37     0  00:47        0.53
  HS02004013           JUNCTION     0.18     0.72    35.86     0  00:50        0.72
  HS02004010           JUNCTION     0.06     0.21    38.07     0  00:52        0.21
  HS02003174           JUNCTION     0.21     0.51     6.04     0  00:52        0.51
  HS02003171           JUNCTION     0.23     0.57     6.25     0  00:52        0.57
  HS02003170           JUNCTION     0.26     0.52     6.97     0  00:52        0.51
  HS02003168           JUNCTION     0.14     0.35     6.85     0  00:52        0.35
  HS02003166           JUNCTION     0.26     0.54     7.01     0  00:51        0.53
  HS02003162           JUNCTION     0.24     0.42    30.67     0  00:44        0.42
  HS02003160           JUNCTION     0.19     0.40    28.46     0  00:51        0.40
  HS02003150           JUNCTION     0.20     0.43    26.45     0  00:51        0.43
  HS02003148           JUNCTION     0.22     0.57    22.31     0  00:51        0.57
  HS02003145           JUNCTION     0.30     0.81    14.68     0  00:48        0.81
  HS02003143           JUNCTION     0.42     0.80    13.27     0  00:40        0.80
  HS02003138           JUNCTION     0.28     0.69     7.18     0  01:46        0.69
  HS02003136           JUNCTION     1.58     2.28    10.00     0  00:00        2.28
  HS02003125           JUNCTION     1.62     2.37     9.82     0  00:31        2.32
  HS02003122           JUNCTION     1.67     2.49     9.92     0  00:52        2.49
  HS02003119           JUNCTION     1.43     2.46    10.17     0  00:31        2.33
  HS02003116           JUNCTION     1.10     2.33    10.46     0  00:31        1.97
  HS02003111           JUNCTION     0.49     1.10    10.11     0  00:51        1.09
  HS02003108           JUNCTION     0.41     1.33    10.45     0  00:51        1.08
  HS02003100           JUNCTION     0.30     1.46    10.70     0  00:51        1.03
  HS02003088           JUNCTION     0.25     1.62    10.91     0  00:51        1.03
  HS02003084           JUNCTION     0.13     1.63    11.06     0  00:51        0.89
  HS02003079           JUNCTION     0.09     1.60    11.11     0  00:51        1.00
  HS02003077           JUNCTION     0.03     1.48    11.22     0  00:51        0.68
  HS02003065           JUNCTION     0.78     1.67    10.91     0  00:52        1.67
  HS02003056           JUNCTION     0.83     1.77    10.72     0  00:51        1.77
  HS02003053           JUNCTION     0.59     1.66    10.96     0  00:47        1.66
  HS02003042           JUNCTION     0.42     1.69    11.35     0  00:47        1.45
  HS02003039           JUNCTION     0.46     1.86    11.52     0  00:47        1.54
  HS02003036           JUNCTION     0.26     1.41    11.47     0  00:47        1.33
  HS02003028           JUNCTION     0.39     1.40    11.14     0  00:46        1.40
  HS02003021           JUNCTION     0.41     1.55    10.92     0  00:46        1.49
  HS02003018           JUNCTION     0.43     1.48    10.69     0  00:46        1.48
  HS02003017           JUNCTION     0.43     1.48    10.64     0  00:46        1.48
  HS02003013           JUNCTION     0.42     1.47    10.52     0  00:46        1.42
  HS02003010           JUNCTION     0.44     1.43    10.24     0  00:46        1.30
  HS02003007           JUNCTION     0.39     1.30     9.92     0  00:46        1.09
  HS02003004           JUNCTION     0.46     1.05     9.37     0  00:46        0.98
  HS02003001           JUNCTION     0.13     0.32     8.61     0  00:52        0.32
  YS02001738           JUNCTION     0.00     0.00     8.89     0  00:00        0.00
  YS02001739           JUNCTION     0.00     0.00     8.37     0  00:00        0.00
  YS02001742           JUNCTION     0.00     0.00     8.49     0  00:00        0.00
  YS02001745           JUNCTION     0.17     0.69     8.20     0  00:52        0.63
  YS02001748           JUNCTION     0.23     2.27     9.35     0  00:51        1.07
  YS02001751           JUNCTION     0.25     2.20     9.08     0  00:51        1.22
  YS02001754           JUNCTION     0.29     2.20     8.81     0  00:50        2.18
  YS02001762           JUNCTION     0.51     2.15     8.55     0  00:50        2.15
  YS02001765           JUNCTION     0.50     2.10     8.55     0  00:50        2.10
  YS02001767           JUNCTION     0.52     2.03     8.52     0  00:50        2.02
  YS02001770           JUNCTION     0.58     1.95     8.44     0  00:50        1.95
  YS02001774           JUNCTION     0.65     2.05     8.47     0  00:50        1.99
  YS02001779           JUNCTION     0.39     1.68     8.37     0  00:50        1.68
  YS02001882           JUNCTION     0.86     1.80     8.52     0  00:44        1.68
  YS02001884           JUNCTION     0.95     1.88     8.49     0  00:44        1.78
  YS02001759           JUNCTION     0.51     2.21     8.57     0  00:50        2.21
  YS02001887           JUNCTION     1.03     1.89     8.43     0  00:44        1.86
  YS02001890           JUNCTION     1.05     1.81     8.32     0  00:44        1.81
  YS02001898           JUNCTION     0.82     1.56     8.30     0  00:49        1.56
  YS02001901           JUNCTION     0.92     1.68     8.29     0  00:58        1.67
  YS02001904           JUNCTION     0.90     1.64     8.27     0  00:57        1.63
  YS02001907           JUNCTION     1.22     1.96     8.25     0  00:45        1.96
  YS02001910           JUNCTION     1.06     2.01     8.52     0  00:51        2.01
  YS02001915           JUNCTION     0.90     2.00     8.72     0  00:51        2.00
  YS02001918           JUNCTION     0.63     1.81     8.88     0  00:47        1.81
  YS02001920           JUNCTION     0.71     2.09     9.10     0  00:51        1.89
  YS02001923           JUNCTION     0.53     2.01     9.27     0  00:47        1.66
  YS02001926           JUNCTION     0.51     1.90     9.35     0  00:47        1.51
  YS02001929           JUNCTION     0.36     1.78     9.47     0  00:47        1.32
  YS02001932           JUNCTION     0.26     1.77     9.57     0  00:51        1.24
  YS02001935           JUNCTION     0.20     1.75     9.68     0  00:51        1.14
  YS02001757           JUNCTION     0.49     2.10     8.36     0  00:50        2.10
  YS02001895           JUNCTION     0.81     1.57     8.31     0  00:56        1.56
  YS02005679           JUNCTION     0.00     0.01    10.25     0  00:51        0.01
  YS02005559           JUNCTION     0.11     0.25    10.19     0  00:53        0.25
  YS02005651           JUNCTION     0.07     0.20    10.97     0  00:52        0.20
  YS02005670           JUNCTION     0.08     0.22    10.68     0  00:52        0.22
  YS02005547           JUNCTION     0.06     0.16    10.70     0  00:51        0.16
  YS02005549           JUNCTION     0.08     0.25    11.16     0  00:51        0.25
  YS02005550           JUNCTION     0.12     0.52    11.14     0  00:50        0.44
  YS02005551           JUNCTION     0.06     0.16    10.53     0  00:52        0.16
  YS02005553           JUNCTION     0.14     0.46    10.82     0  00:50        0.41
  YS02005554           JUNCTION     0.07     0.15    10.39     0  00:53        0.15
  YS02005556           JUNCTION     0.14     0.40    10.46     0  00:51        0.35
  YS02005557           JUNCTION     0.07     0.15    10.12     0  00:53        0.15
  YS02005560           JUNCTION     0.08     0.17     9.92     0  00:53        0.17
  YS02005562           JUNCTION     0.13     0.27    10.01     0  00:51        0.26
  YS02005563           JUNCTION     0.07     0.15     9.82     0  00:53        0.15
  YS02005565           JUNCTION     0.12     0.25     9.96     0  00:53        0.25
  YS02005566           JUNCTION     0.10     0.20     9.59     0  00:53        0.20
  YS02005568           JUNCTION     0.16     0.49     9.99     0  00:50        0.47
  YS02005569           JUNCTION     0.11     0.24     9.56     0  00:53        0.24
  YS02005598           JUNCTION     0.26     1.07    10.91     0  00:46        1.07
  YS02005600           JUNCTION     0.24     1.02    10.68     0  00:47        1.02
  YS02005602           JUNCTION     0.55     2.15    10.43     0  00:47        2.15
  YS02005603           JUNCTION     0.17     1.09     9.22     0  00:47        0.58
  YS02005609           JUNCTION     0.09     0.26     9.15     0  00:52        0.25
  YS02005653           JUNCTION     0.15     0.87    11.84     0  00:50        0.87
  YS02005654           JUNCTION     0.15     0.65    11.41     0  00:52        0.64
  YS02005655           JUNCTION     0.06     0.15    10.78     0  00:50        0.15
  YS02005595           JUNCTION     0.38     1.36    11.04     0  00:44        1.36
  YS02005658           JUNCTION     0.12     0.57    11.48     0  00:52        0.57
  YS02005659           JUNCTION     0.06     0.16    10.82     0  00:52        0.16
  YS02005661           JUNCTION     0.16     0.76    11.47     0  00:52        0.75
  YS02005662           JUNCTION     0.06     0.15    10.76     0  00:52        0.15
  YS02005664           JUNCTION     0.16     0.68    11.26     0  00:52        0.67
  YS02005665           JUNCTION     0.05     0.13    10.69     0  00:52        0.13
  YS02005668           JUNCTION     0.06     0.15    10.31     0  00:52        0.15
  YS02005667           JUNCTION     0.32     0.95    10.97     0  00:52        0.95
  YS02005571           JUNCTION     0.20     0.84    10.32     0  00:52        0.71
  YS02005572           JUNCTION     0.13     0.56     9.91     0  00:52        0.43
  YS02005576           JUNCTION     0.14     0.44    10.20     0  00:51        0.42
  YS02005577           JUNCTION     0.11     0.27     9.75     0  00:53        0.27
  YS02005579           JUNCTION     0.34     1.12    10.74     0  00:50        1.12
  YS02005580           JUNCTION     0.21     0.91    10.45     0  00:50        0.69
  YS02005582           JUNCTION     0.35     0.86    10.94     0  00:48        0.86
  YS02005583           JUNCTION     0.18     0.91    10.90     0  00:48        0.41
  YS02005612           JUNCTION     0.49     1.59     9.72     0  00:50        1.59
  YS02005615           JUNCTION     0.06     0.15    11.64     0  00:51        0.15
  YS02005616           JUNCTION     0.05     0.12    10.94     0  00:51        0.12
  YS02005618           JUNCTION     0.09     0.26    11.11     0  00:52        0.26
  YS02005619           JUNCTION     0.06     0.14    10.69     0  00:51        0.14
  YS02005621           JUNCTION     0.10     0.32    11.43     0  00:51        0.30
  YS02005622           JUNCTION     0.04     0.12    11.08     0  00:51        0.11
  YS02005625           JUNCTION     0.04     0.10    11.12     0  00:51        0.10
  YS02005627           JUNCTION     0.12     0.45    11.38     0  00:50        0.42
  YS02005628           JUNCTION     0.04     0.11    11.01     0  00:51        0.11
  YS02005630           JUNCTION     0.11     0.56    11.64     0  00:50        0.47
  YS02005631           JUNCTION     0.05     0.14    11.01     0  00:52        0.14
  YS02005633           JUNCTION     0.11     0.54    11.67     0  00:50        0.46
  YS02005634           JUNCTION     0.06     0.15    10.98     0  00:52        0.15
  YS02005636           JUNCTION     0.13     0.63    11.63     0  00:52        0.63
  YS02005637           JUNCTION     0.07     0.17    10.93     0  00:52        0.17
  YS02005639           JUNCTION     0.11     0.52    11.15     0  00:52        0.52
  YS02005640           JUNCTION     0.07     0.17    10.50     0  00:52        0.17
  YS02005642           JUNCTION     0.09     0.24    11.07     0  00:52        0.24
  YS02005644           JUNCTION     0.18     0.87    11.98     0  00:50        0.87
  YS02005645           JUNCTION     0.09     0.22    11.03     0  00:50        0.22
  YS02005647           JUNCTION     0.27     1.03    11.92     0  00:49        1.03
  YS02005648           JUNCTION     0.10     0.23    11.02     0  00:50        0.23
  YS02005650           JUNCTION     0.17     0.88    11.77     0  00:52        0.87
  YS02005671           JUNCTION     0.04     0.11    10.33     0  00:52        0.11
  YS02005673           JUNCTION     0.09     0.24    10.60     0  00:52        0.24
  YS02005674           JUNCTION     0.06     0.15    10.04     0  00:52        0.15
  YS02005676           JUNCTION     0.00     0.00    10.24     0  00:52        0.00
  YS02005680           JUNCTION     0.06     0.15    10.25     0  00:52        0.15
  YS02005682           JUNCTION     0.00     0.00    10.06     0  00:00        0.00
  YS02005683           JUNCTION     0.04     0.09     9.98     0  00:52        0.09
  YS02005376           JUNCTION     0.83     1.01    11.10     0  00:27        1.01
  YS02005378           JUNCTION     1.37     1.62    11.15     0  00:27        1.62
  YS02005381           JUNCTION     1.27     1.57    11.20     0  00:27        1.57
  YS02005624           JUNCTION     0.23     0.52    11.41     0  00:51        0.52
  YS02005384           JUNCTION     0.41     1.01    10.66     0  00:27        0.53
  YS02005677           JUNCTION     0.06     0.16    10.24     0  00:52        0.16
  YSB1105              JUNCTION     0.31     1.40    10.88     0  00:52        0.77
  YSB1106              JUNCTION     0.30     1.69    11.52     0  00:49        0.89
  YSB1109              JUNCTION     0.38     1.67    11.61     0  00:49        1.23
  YSB1112              JUNCTION     0.39     1.82    11.96     0  00:52        1.45
  YSB1115              JUNCTION     0.37     1.90    12.20     0  00:49        1.42
  YSB1118              JUNCTION     0.39     1.80    12.34     0  00:49        1.51
  YSB1121              JUNCTION     0.46     1.70    12.37     0  00:49        1.70
  YSB1124              JUNCTION     0.32     1.60    12.43     0  00:49        1.55
  YSB1128              JUNCTION     0.54     1.85    12.43     0  00:43        1.50
  YSB1132              JUNCTION     0.60     1.90    12.35     0  00:43        1.62
  YSB1228              JUNCTION     0.06     0.16    11.00     0  00:51        0.16
  YSB1202              JUNCTION     0.99     1.50    12.39     0  00:40        1.46
  YSB1135              JUNCTION     0.73     2.00    12.26     0  00:43        1.81
  YSB1138              JUNCTION     0.82     1.90    12.07     0  00:43        1.90
  YSB1141              JUNCTION     0.86     2.00    11.83     0  00:43        1.85
  YSB1145              JUNCTION     0.87     1.99    11.68     0  00:43        1.85
  YSB1148              JUNCTION     0.94     2.00    11.50     0  00:43        1.89
  YSB1151              JUNCTION     1.12     2.08    11.31     0  00:43        2.00
  YSB1154              JUNCTION     1.26     2.10    11.16     0  00:43        2.10
  YSB1198              JUNCTION     0.26     1.60    12.39     0  00:44        1.60
  YSB1192              JUNCTION     0.49     1.90    12.17     0  00:44        1.81
  YSB6556              JUNCTION     1.08     1.80    10.97     0  00:43        1.80
  YSB1205              JUNCTION     1.17     1.65    12.35     0  00:40        1.65
  YSB1209              JUNCTION     1.15     1.65    12.22     0  00:48        1.65
  YSB1212              JUNCTION     1.06     1.60    12.13     0  00:48        1.60
  YSB1215              JUNCTION     1.08     1.69    12.04     0  00:52        1.69
  YSB1218              JUNCTION     1.08     1.75    11.94     0  00:48        1.75
  YSB1221              JUNCTION     1.01     1.79    11.76     0  00:52        1.59
  YSB1224              JUNCTION     0.88     1.74    11.59     0  00:52        1.35
  YSB1195              JUNCTION     0.43     1.90    12.28     0  00:44        1.90
  YSB1189              JUNCTION     0.59     1.80    11.96     0  00:44        1.80
  YSB1186              JUNCTION     0.65     1.95    11.82     0  00:44        1.76
  YSB1183              JUNCTION     0.80     2.05    11.64     0  00:44        1.88
  YSB1180              JUNCTION     0.83     1.95    11.46     0  00:44        1.83
  YSB1177              JUNCTION     1.09     2.05    11.24     0  00:44        2.01
  YSB1174              JUNCTION     1.13     1.95    11.06     0  00:48        1.95
  YSB1171              JUNCTION     1.29     1.95    10.85     0  00:43        1.95
  YS02006553           JUNCTION     1.22     1.99     8.28     0  00:50        1.99
  YS02006561           JUNCTION     0.45     1.14     7.80     0  00:45        0.93
  YS02006562           JUNCTION     0.99     1.82     8.33     0  00:51        1.81
  YS02006556           JUNCTION     1.19     2.00     8.31     0  00:51        1.99
  YS02006558           JUNCTION     1.23     2.06     8.33     0  00:50        2.05
  YS6132               JUNCTION     0.63     3.15    10.47     0  00:54        2.09
  YS6137               JUNCTION     0.35     2.63    10.42     0  00:54        2.19
  YS6189               JUNCTION     0.46     2.80    10.59     0  00:54        2.48
  YS6184               JUNCTION     0.47     2.65    10.54     0  00:52        2.54
  YS6179               JUNCTION     0.41     2.60    10.58     0  00:52        2.41
  YS6176               JUNCTION     0.32     2.39    10.59     0  00:54        2.17
  YS6171               JUNCTION     0.33     2.10    10.51     0  00:50        2.03
  YS6168               JUNCTION     0.35     2.00    10.51     0  00:50        2.00
  YS6164               JUNCTION     0.17     1.90    10.63     0  00:50        1.90
  YS6162               JUNCTION     0.22     2.10    10.75     0  00:50        1.97
  YS6187               JUNCTION     0.51     2.75    10.53     0  00:54        2.55
  YS6363               JUNCTION     0.39     2.80    10.59     0  00:54        1.95
  YS6360               JUNCTION     0.52     2.85    10.65     0  00:54        2.10
  YS6354               JUNCTION     0.52     2.60    10.75     0  00:50        2.33
  YS6351               JUNCTION     0.62     2.50    10.71     0  00:50        2.44
  YS6350               JUNCTION     0.68     2.50    10.72     0  00:49        2.50
  YS6348               JUNCTION     0.64     2.45    10.85     0  00:48        2.45
  YS6344               JUNCTION     0.46     2.40    10.99     0  00:59        2.26
  YS6375               JUNCTION     0.11     0.37     8.80     0  00:52        0.37
  YS6377               JUNCTION     0.17     0.44     8.80     0  00:52        0.44
  YS6381               JUNCTION     0.19     0.51     8.64     0  00:52        0.51
  YS6386               JUNCTION     0.22     0.59     8.57     0  00:52        0.59
  YS6390               JUNCTION     0.44     0.69     8.38     0  00:52        0.69
  YS6394               JUNCTION     0.12     0.29     8.21     0  00:52        0.29
  YS6404               JUNCTION     0.58     3.00    10.23     0  00:49        1.47
  YS6401               JUNCTION     0.19     0.43     7.64     0  00:52        0.41
  YS02004319           JUNCTION     0.38     1.18    20.80     0  00:43        1.18
  YS02004320           JUNCTION     0.00     0.00    22.64     0  01:00        0.00
  YS02004321           JUNCTION     0.00     0.00    26.80     0  01:06        0.00
  YS02004307           JUNCTION     0.18     0.52    11.06     0  00:50        0.52
  YS02004309           JUNCTION     0.87     1.55    13.07     0  00:34        1.55
  YS02004312           JUNCTION     0.58     1.48    14.91     0  00:41        1.48
  YS02004314           JUNCTION     0.43     1.28    16.99     0  00:43        1.28
  YS02004316           JUNCTION     0.44     1.36    19.13     0  00:43        1.36
  YS02001783           JUNCTION     0.69     1.40     7.54     0  00:45        1.26
  YS02001784           JUNCTION     0.66     1.20     7.27     0  00:45        1.13
  YS02001786           JUNCTION     0.53     0.95     6.98     0  00:45        0.88
  YS02001788           JUNCTION     0.39     0.63     6.60     0  00:49        0.62
  YS02001790           JUNCTION     0.45     0.72     6.37     0  00:56        0.72
  YS02001791           JUNCTION     0.27     0.44     5.91     0  00:53        0.44
  YS02001793           JUNCTION     0.14     0.28     5.11     0  01:09        0.27
  YS02003309           JUNCTION     0.72     1.21     9.77     0  00:27        1.06
  YS02003306           JUNCTION     0.83     1.16     9.60     0  00:27        1.16
  YS02003269           JUNCTION     0.14     0.17     7.76     0  00:44        0.17
  YS02003272           JUNCTION     0.42     1.34     9.07     0  00:27        0.59
  YS02003278           JUNCTION     0.84     1.21     9.13     0  00:44        1.21
  YS02003281           JUNCTION     0.94     1.39     9.47     0  00:44        1.39
  YS02003284           JUNCTION     1.02     1.40     9.41     0  00:27        1.40
  YS02003287           JUNCTION     0.96     1.27     9.34     0  00:27        1.27
  YS02003290           JUNCTION     0.82     1.12     9.40     0  00:28        1.11
  YS02003294           JUNCTION     0.97     1.24     9.42     0  00:27        1.24
  YS02003275           JUNCTION     0.62     1.16     9.07     0  00:27        0.91
  YS02003297           JUNCTION     0.95     1.22     9.43     0  00:28        1.22
  YS02003300           JUNCTION     0.89     1.15     9.42     0  00:27        1.15
  YS02003303           JUNCTION     0.88     1.14     9.46     0  00:27        1.14
  YSB1227              JUNCTION     0.01     0.11    11.01     0  00:51        0.10
  CaochengRainPumpOutfall1 OUTFALL      0.00     0.00     6.00     0  00:00        0.00
  JiankangRainPumpOutfall2 OUTFALL      0.00     0.00     6.00     0  00:00        0.00
  JiankangRainPumpOutfall1 OUTFALL      0.00     0.00     6.00     0  00:00        0.00
  CaochengRainPumpOutfall2 OUTFALL      0.00     0.00     6.00     0  00:00        0.00
  YS02005684           OUTFALL      0.04     0.09     8.49     0  00:52        0.09
  YS02005681           OUTFALL      0.06     0.15     9.37     0  00:52        0.15
  YS02005678           OUTFALL      0.06     0.16     8.70     0  00:52        0.16
  YS02005675           OUTFALL      0.06     0.15     8.69     0  00:52        0.15
  YS02005672           OUTFALL      0.04     0.11     8.44     0  00:52        0.11
  YS02005669           OUTFALL      0.06     0.15     8.86     0  00:52        0.15
  YS02005666           OUTFALL      0.05     0.13     8.81     0  00:52        0.13
  YS02005663           OUTFALL      0.06     0.14     8.88     0  00:52        0.14
  YS02005660           OUTFALL      0.06     0.16     8.97     0  00:52        0.16
  YS02005657           OUTFALL      0.00     0.00     8.74     0  00:00        0.00
  YS02005652           OUTFALL      0.07     0.20     8.83     0  00:52        0.20
  YS02005649           OUTFALL      0.10     0.23     8.93     0  00:50        0.23
  YS02005646           OUTFALL      0.09     0.22     8.22     0  00:50        0.22
  YS02005643           OUTFALL      0.09     0.24     8.80     0  00:52        0.24
  YS02005641           OUTFALL      0.07     0.17     8.86     0  00:52        0.17
  YS02005638           OUTFALL      0.06     0.17     8.83     0  00:52        0.17
  YS02005635           OUTFALL      0.06     0.15     8.81     0  00:52        0.15
  YS02005632           OUTFALL      0.05     0.13     8.69     0  00:52        0.13
  YS02005629           OUTFALL      0.04     0.11     8.59     0  00:51        0.11
  YS02005626           OUTFALL      0.04     0.10     8.63     0  00:51        0.10
  YS02005623           OUTFALL      0.04     0.12     8.59     0  00:51        0.11
  YS02005620           OUTFALL      0.06     0.14     8.94     0  00:52        0.14
  YS02005617           OUTFALL      0.05     0.12     8.96     0  00:51        0.12
  YSB1103              OUTFALL      0.30     0.60     8.60     0  00:49        0.60
  YSB1229              OUTFALL      0.06     0.16     8.96     0  00:51        0.16
  YS02005548           OUTFALL      0.06     0.16     9.16     0  00:51        0.16
  YS02005552           OUTFALL      0.06     0.16     8.78     0  00:52        0.16
  YS02005555           OUTFALL      0.07     0.15     8.88     0  00:53        0.15
  YS02005558           OUTFALL      0.07     0.15     8.86     0  00:53        0.15
  YS02005561           OUTFALL      0.08     0.17     8.85     0  00:53        0.17
  YS02005564           OUTFALL      0.07     0.15     8.63     0  00:53        0.15
  YS02005567           OUTFALL      0.10     0.20     8.74     0  00:53        0.20
  YS02005570           OUTFALL      0.11     0.24     8.95     0  00:53        0.24
  YS02005574           OUTFALL      0.13     0.30     9.14     0  00:52        0.30
  YS02005578           OUTFALL      0.12     0.30     9.08     0  00:52        0.30
  WS02005134           OUTFALL      0.00     0.00     8.74     0  00:00        0.00
  YS02005581           OUTFALL      0.14     0.30     9.10     0  00:50        0.30
  YS02005584           OUTFALL      0.15     0.30     9.26     0  00:48        0.30
  YS02005593           OUTFALL      0.25     0.28     9.00     0  00:57        0.28
  YS02005596           OUTFALL      0.16     0.30     8.84     0  00:44        0.30
  YS02005374           OUTFALL      0.14     0.30     8.54     0  00:46        0.30
  YS02005375           OUTFALL      0.14     0.30     8.69     0  00:46        0.30
  YS02005607           OUTFALL      0.13     0.30     7.53     0  00:47        0.30
  YS02005610           OUTFALL      0.09     0.26     8.87     0  00:52        0.26
  YS02005613           OUTFALL      0.15     0.30     8.58     0  00:49        0.30
  HS02003172           OUTFALL      0.21     0.51     5.96     0  00:53        0.51
  YS6395               OUTFALL      0.12     0.29     6.72     0  00:52        0.29
  YS6405               OUTFALL      0.18     0.41     3.86     0  00:52        0.41
  WSC                  OUTFALL      0.63     0.80     5.00     0  00:37        0.80
  JiankangQianchi      STORAGE      2.80     4.22     5.02     0  01:09        4.17
  CaochengTiaoxuchi    STORAGE      0.93     1.41     6.91     0  01:02        1.41
  XierchiQianchi       STORAGE      7.02     7.47     5.47     0  02:02        7.47
  
  
  *******************
  Node Inflow Summary
  *******************
  
  -------------------------------------------------------------------------------------------------
                                  Maximum  Maximum                  Lateral       Total        Flow
                                  Lateral    Total  Time of Max      Inflow      Inflow     Balance
                                   Inflow   Inflow   Occurrence      Volume      Volume       Error
  Node                 Type           LPS      LPS  days hr:min    10^6 ltr    10^6 ltr     Percent
  -------------------------------------------------------------------------------------------------
  WS02001211           JUNCTION      7.35   232.37     0  00:45      0.0538        1.18       4.519
  WS02001212           JUNCTION      0.00   230.77     0  01:30           0        1.14       2.556
  WS02001213           JUNCTION      0.00   239.64     0  01:29           0        1.12       3.438
  WS02003069           JUNCTION      0.32  2521.17     0  00:50     0.00234          11       0.689
  WS02003072           JUNCTION      0.00  2521.16     0  00:50           0          11       0.577
  WS02003073           JUNCTION      1.82  3089.80     0  00:50      0.0133        14.4       0.276
  WS02003076           JUNCTION      0.00  3089.82     0  00:50           0        14.3       0.315
  WS02003060           JUNCTION     16.53  2520.95     0  00:50       0.121        11.1       0.553
  WS02003066           JUNCTION      0.00  2306.26     0  00:50           0        9.97       0.106
  WS02003059           JUNCTION      0.00   245.65     0  01:29           0        1.13       5.297
  WS02003115           JUNCTION      0.00   477.09     0  00:46           0        1.29       0.339
  WS02003116           JUNCTION      0.00   326.99     0  00:23           0        1.16       0.714
  WS02003118           JUNCTION      0.14   263.22     0  00:22    4.15e-06        1.15       1.292
  WS02003215           JUNCTION      0.18  2762.38     0  00:52    2.09e-05        3.49       0.769
  WS02003110           JUNCTION      0.18   518.41     0  00:52     0.00132       0.689       1.069
  WS02003111           JUNCTION      1.52   996.81     0  00:52      0.0107        1.92       0.367
  WS02005155           JUNCTION      0.38   518.18     0  00:52     0.00279       0.688       1.436
  WS02005154           JUNCTION    517.68   517.68     0  00:52       0.683       0.685       0.859
  WS02005193           JUNCTION      0.00   186.62     0  00:27           0      0.0152     138.077
  WS02005196           JUNCTION      0.00   154.37     0  00:27           0     0.00565     595.478
  WS02003067           JUNCTION      0.00  1874.99     0  00:49           0        7.86       0.191
  WS02004401           JUNCTION      0.00  1105.26     0  01:40           0        5.81       0.543
  WS02004402           JUNCTION      0.00  1105.48     0  01:40           0        5.79       0.482
  WS02004403           JUNCTION      0.00  1105.59     0  01:40           0        5.77       0.418
  WS02004404           JUNCTION      0.16  1106.00     0  01:40     0.00119        5.75       0.289
  WS02004406           JUNCTION      0.00  1106.15     0  01:40           0        5.73       0.715
  WS02004409           JUNCTION      0.19  1821.34     0  00:48    0.000167        8.53       0.413
  WS02004410           JUNCTION      0.00  1874.80     0  00:49           0        8.62       0.418
  WS02004411           JUNCTION      0.00  1874.90     0  00:49           0        7.97       0.433
  WS02004412           JUNCTION      0.00  1874.73     0  00:49           0        7.94       0.433
  WS02004413           JUNCTION      0.00  1874.89     0  00:49           0        7.91       0.553
  WS02004405           JUNCTION      0.19  1106.42     0  01:40    0.000456        5.75       0.421
  WS02006109           JUNCTION      1.96  1308.01     0  00:00     0.00964         6.8       0.333
  WS02006110           JUNCTION      0.38  1105.04     0  01:40    0.000356        5.98      -0.327
  WS02006111           JUNCTION      0.04  1176.04     0  00:00    1.33e-05        5.97      -0.296
  WS02006112           JUNCTION      0.48  2307.30     0  00:00    2.69e-05        5.99       0.275
  WS02006113           JUNCTION      0.12  1105.24     0  01:40    7.83e-05        5.96      -0.355
  WS02006115           JUNCTION      0.00  1366.62     0  00:00           0        5.86       0.562
  WS02006116           JUNCTION      0.39  1105.48     0  01:40    0.000479        5.83       0.466
  WS02006230           JUNCTION     10.45  1026.98     0  00:49      0.0753        3.88       0.425
  WS02006231           JUNCTION      0.57   453.35     0  01:10     0.00164        2.25       0.722
  WS02006232           JUNCTION      0.28   453.57     0  01:22    0.000196        2.26       0.796
  WS02006234           JUNCTION      0.09   453.37     0  01:22    2.73e-06        2.27       0.539
  WS02006235           JUNCTION      0.27   415.09     0  01:00    0.000552        2.27       0.483
  WS02006238           JUNCTION      0.00   415.39     0  01:38           0        2.28       0.319
  WS02006240           JUNCTION      0.00   414.92     0  01:37           0         2.3       0.716
  WS02006242           JUNCTION      0.44   414.95     0  01:00    0.000102        2.32       0.849
  WS02006243           JUNCTION      0.73   284.82     0  00:24     0.00157         1.7       0.955
  WS02006245           JUNCTION      0.00   292.28     0  00:25           0        1.72       0.779
  WS02006247           JUNCTION      0.00   304.54     0  00:25           0        1.73       0.693
  WS02006248           JUNCTION      0.00   346.07     0  00:35           0        2.09       0.536
  WS02006249           JUNCTION      0.00  1391.57     0  00:52           0        5.73       0.293
  WS02006239           JUNCTION      0.00   415.02     0  01:38           0        2.29       0.556
  WS02006251           JUNCTION      0.08  1758.92     0  00:52    0.000564        6.06       0.302
  WS02006252           JUNCTION      0.00   767.71     0  00:52           0        2.12      -0.016
  WS02006253           JUNCTION     54.78  1758.42     0  00:52      0.0765        4.99       0.411
  WS02006256           JUNCTION      0.00   300.00     0  00:30           0        1.64       0.061
  WS02004138           JUNCTION      0.00   190.00     0  00:29           0        1.17       0.241
  WS02004139           JUNCTION      0.32   190.32     0  00:33     0.00235        1.17       3.777
  WS02004407           JUNCTION      0.09  1821.38     0  00:48    0.000109         8.6       0.349
  WS02006228           JUNCTION      1.27  1288.78     0  00:49     0.00114        6.78       0.227
  WS02006229           JUNCTION      1.02  2305.81     0  00:49    0.000924        10.5       0.271
  WS02006280           JUNCTION      0.26  2304.92     0  00:49    0.000436        10.4       0.033
  WS02006284           JUNCTION      0.19  2304.96     0  00:49    0.000754        10.4       0.167
  WS02006287           JUNCTION      0.21  2305.05     0  00:49    0.000119        10.4       0.110
  WS02003091           JUNCTION      0.53  1200.35     0  00:00     0.00121        3.58      -1.102
  WS02003203           JUNCTION      0.33  2264.56     0  00:00    0.000142        5.86       0.173
  WS6145               JUNCTION      0.32   228.59     0  00:48    0.000438      0.0899       0.381
  WS6147               JUNCTION      0.00   228.05     0  00:48           0      0.0789       0.234
  WS6150               JUNCTION      0.19   227.29     0  00:48    0.000527      0.0681       0.504
[...]
  HS02004049HS02004052        0.22      0.22      0.25      0.01         0.01
  HS02004048HS02004049        0.34      0.47      0.34      0.55         0.34
  HS02004046HS02004048        0.23      0.23      0.47      0.01         0.01
  HS02004043HS02004046        0.19      0.19      0.26      0.08         0.08
  HS02004041HS02004043        0.06      0.06      0.18      0.01         0.01
  HS02004038HS02004041        0.01      0.01      0.05      0.01         0.01
  HS02004028HS02004027        0.01      0.21      0.01      0.23         0.01
  HS02003143HS02003065        0.69      0.69      0.94      0.01         0.01
  HS02004842HS02004848        0.70      0.70      0.94      0.01         0.01
  HS02004837HS02004842        0.75      0.75      0.94      0.01         0.01
  HS02004830HS02004837        0.75      0.75      0.80      0.01         0.01
  HS02004824HS02004830        0.80      0.80      0.85      0.01         0.01
  HS02004817HS02004824        0.85      0.85      1.58      0.01         0.01
  HS02004770HS02004777        0.86      0.86      0.87      0.01         0.01
  HS02004799HS02004480        1.05      1.05      1.14      1.16         0.01
  HS02004792HS02004799        0.98      0.98      1.14      0.01         0.01
  HS02004788HS02004792        0.80      0.80      0.98      0.01         0.01
  HS02004785HS02004788        0.80      0.81      0.80      1.47         0.66
  HS02004777HS02004785        0.81      0.81      0.87      0.01         0.01
  HS02004480HS02004478        0.97      1.05      0.97      1.71         0.97
  HS02004479HS02004480        1.05      1.05      1.09      0.01         0.01
  HS02003013HS02003010        0.45      0.45      0.50      0.30         0.31
  HS02003010HS02003007        0.43      0.44      0.45      0.48         0.43
  HS02003007HS02003004        0.45      0.45      0.56      0.26         0.26
  HS02003004HS02003001        0.01      0.56      0.01      1.25         0.01
  HS02003065HS02003056        0.92      0.92      1.09      0.01         0.01
  HS02003042HS02003053        0.39      0.39      0.87      0.01         0.01
  HS02003028HS02003021        0.31      0.31      0.39      0.01         0.01
  HS02003021HS02003018        0.42      0.42      0.43      0.16         0.17
  HS02003018HS02003017        0.43      0.43      0.44      0.09         0.08
  HS02003017HS02003013        0.44      0.44      0.45      0.36         0.35
  HS02004862HS02004870        0.77      0.77      0.79      0.27         0.28
  HS02004848HS02004852        0.70      0.70      0.74      0.02         0.01
  HS02004856HS02004862        0.71      0.71      0.77      0.01         0.01
  HS02004852HS02004856        0.73      0.74      0.76      0.02         0.01
  HS02004024HS02004022        0.01      0.01      0.26      0.01         0.01
  HS02004022HS02004021        0.26      0.26      0.37      0.01         0.01
  HS02004021HS02004019        0.37      0.37      0.48      0.29         0.30
  HS02004019HS02003162        0.01      0.48      0.01      0.51         0.01
  HS02004052HS02004053        0.24      0.25      0.24      0.26         0.24
  HS02003122HS02003125        1.53      1.53      1.53      0.23         0.26
  HS02003119HS02003122        1.52      1.52      1.54      0.01         0.01
  HS02003116HS02003119        1.39      1.39      1.52      0.01         0.01
  HS02003111HS02003116        0.01      0.01      1.47      0.01         0.01
  HS02004018HS02004019        0.30      0.30      0.48      0.01         0.01
  HS02003056HS02003136        0.95      0.95      1.56      0.01         0.01
  HS02004017HS02004018        0.28      0.28      0.30      0.01         0.01
  HS02004013HS02004017        0.10      0.10      0.28      0.11         0.10
  HS02004010HS02004013        0.01      0.01      0.10      0.01         0.01
  HS02004802HS02004478        0.98      0.98      1.06      0.27         0.01
  HS02004478WS02006287        0.83      0.83      1.04      0.01         0.01
  HS02003079HS02003084        0.04      0.04      0.05      0.01         0.01
  HS02003148HS02003145        0.01      0.01      0.20      0.06         0.01
  HS02003145HS02003143        0.20      0.20      0.66      0.19         0.17
  HS02003136WS02003203        1.57      1.57      1.67      0.01         0.01
  HS02003084HS02003088        0.05      0.05      0.09      0.01         0.01
  HS02003077HS02003079        0.01      0.01      0.04      0.01         0.01
  HS02003108HS02003111        0.23      0.23      0.48      0.01         0.01
  HS02003100HS02003108        0.12      0.12      0.23      0.01         0.01
  HS02003088HS02003100        0.10      0.10      0.12      0.05         0.04
  HS02004817HS02004807        1.03      1.03      1.58      0.01         0.01
  HS02004807HS02004802        1.03      1.03      1.05      0.44         0.45
  HS02003053HS02003056        0.87      0.87      1.09      0.01         0.01
  HS02003039HS02003042        0.47      0.47      0.51      0.30         0.02
  HS02003036HS02003039        0.25      0.25      0.30      0.01         0.01
  YS02001759YS02001757        0.22      0.22      0.23      0.22         0.18
  YS02001762YS02001759        0.22      0.22      0.22      0.20         0.16
  YS02001765YS02001762        0.21      0.21      0.22      0.10         0.09
  YS02001770YS02001767        0.21      0.23      0.21      0.80         0.21
  YS02001774YS02001770        0.22      0.22      0.25      0.01         0.01
  YS02001779YS02001774        0.19      0.19      0.25      0.01         0.01
  YS02001767YS02001765        0.21      0.21      0.21      0.24         0.20
  YS02006561YS02001783        0.56      0.56      0.77      0.01         0.01
  YS02001783YS02001784        0.74      0.77      0.74      0.96         0.74
  YS02001784YS02001785        0.62      0.74      0.62      1.32         0.62
  YS02001790YS02001791        0.01      0.01      0.01      0.73         0.01
  YS02001910YS02001907        0.81      0.81      1.04      0.12         0.12
  YS02001786YS02001788        0.01      0.62      0.01      1.11         0.01
  YS02001915YS02001910        0.71      0.71      0.81      0.01         0.02
  YS02001918YS02001915        0.61      0.61      0.71      0.01         0.01
  YS02001923YS02001920        0.54      0.54      0.63      0.01         0.01
  YS02001926YS02001923        0.26      0.26      0.28      0.06         0.01
  YS02001929YS02001926        0.13      0.13      0.28      0.01         0.01
  YS02001932YS02001929        0.10      0.10      0.13      0.01         0.01
  YS02001935YS02001932        0.01      0.01      0.08      0.01         0.01
  YS02001920YS02001918        0.61      0.61      0.63      0.01         0.01
  YS02003290YS02003287        1.61      1.61      1.66      0.01         0.01
  YS02003294YS02003290        1.61      1.61      1.70      0.04         0.01
  YS02003297YS02003294        1.68      1.68      1.69      0.27         0.27
  YS02003275YS02003272        1.45      1.58      1.45      1.63         1.45
  YS02003300YS02003297        1.61      1.61      1.67      0.01         0.01
  YS02003303YS02003300        1.59      1.59      1.63      0.01         0.01
  YS02005550YS02005551        0.01      0.08      0.01      0.13         0.01
  YS02005568YS02005569        0.01      0.19      0.01      0.30         0.01
  YS02005582YS02005583        0.38      0.62      0.38      0.85         0.38
  YS02003272YS02003269        0.01      1.55      0.01      1.63         0.01
  YS02003278YS02003275        1.60      1.67      1.60      1.75         1.60
  YS02003281YS02003278        1.64      1.64      1.66      1.61         1.61
  YS02003284YS02003281        1.64      1.64      1.66      1.03         0.42
  YS02003287YS02003284        1.65      1.65      1.68      0.01         0.06
  YS02003306YS02003303        1.59      1.59      1.61      0.58         0.58
  YS02003309YS02003306        1.53      1.53      1.59      0.01         0.01
  YS02005600YS02005375        0.25      0.25      0.27      0.27         0.25
  YS02005384YS02005593        0.01      1.55      0.01      1.60         0.01
  YS02005595YS02005596        0.37      0.38      0.37      0.41         0.37
  YS02005609YS02005610        0.01      0.01      0.01      0.03         0.01
  YS02005612YS02005613        0.17      0.17      1.17      0.39         0.01
  YS02005549YS02005547        0.01      0.01      0.01      0.02         0.01
  YS02005553YS02005554        0.01      0.13      0.01      0.26         0.01
  YS02005556YS02005557        0.01      0.10      0.01      0.31         0.01
  YS02005562YS02005563        0.01      0.01      0.01      0.26         0.01
  YS02005565YS02005566        0.01      0.01      0.01      0.05         0.01
  YS02005571YS02005572        0.10      0.30      0.10      0.45         0.10
  YS02005572YS02005574        0.02      0.10      0.02      0.14         0.02
  YS02005576YS02005577        0.01      0.14      0.01      0.19         0.01
  YS02005577YS02005578        0.01      0.01      0.05      0.08         0.01
  YS02005579YS02005580        0.30      0.49      0.30      0.69         0.30
  YS02005580YS02005581        0.28      0.30      0.28      0.32         0.28
  YS02005583YS02005584        0.38      0.38      0.39      0.39         0.38
  YS02006553YS02006556        0.92      0.92      1.08      0.01         0.01
  YS02006556YS02006558        0.99      0.99      1.11      0.01         0.01
  YSB6556YSB1171              1.19      1.19      1.65      0.01         0.01
  YSB1202YSB1205              1.37      1.37      1.39      0.01         0.01
  YSB1205YSB1209              1.38      1.39      1.38      0.78         0.73
  YSB1209YSB1212              1.36      1.38      1.36      1.50         1.36
  YSB1212YSB1215              1.36      1.36      1.36      0.55         0.54
  YSB1215YSB1218              1.36      1.36      1.36      0.61         0.60
  YSB1218YSB1221              1.36      1.36      1.37      1.34         1.34
  YSB1221YSB1224              1.37      1.37      1.37      1.35         1.36
  YSB1224YSB1105              1.17      1.41      1.17      1.51         1.17
  YSB1189YSB1186              0.73      0.73      0.85      0.21         0.21
  YS02001907YS02006553        1.33      1.33      1.43      0.01         0.01
  YS02006562YS02006558        0.77      0.77      1.11      0.01         0.01
  YS02006558YS02006561        0.65      0.91      0.65      1.26         0.65
  YS6184YS6187                0.21      0.21      0.22      0.12         0.14
  YS6360YS6363                0.17      0.22      0.17      0.86         0.17
  YS6354YS6360                0.27      0.28      0.29      0.28         0.26
  YS6351YS6354                0.28      0.30      0.28      0.52         0.28
  YS6350YS6351                0.30      0.33      0.30      0.89         0.30
  YS6348YS6350                0.31      0.31      0.33      0.29         0.28
  YS6344YS6348                0.32      0.32      0.39      0.01         0.01
  YS6363YS6132                0.17      0.17      0.33      0.01         0.01
  YS6137YS6132                0.25      0.25      0.45      0.01         0.01
  YS6189YS6137                0.25      0.25      0.27      1.62         0.01
  YS6187YS6189                0.20      0.21      0.22      0.37         0.01
  YS6179YS6184                0.18      0.18      0.21      0.01         0.01
  YS6176YS6179                0.12      0.12      0.18      0.01         0.01
  YS6171YS6176                0.14      0.14      0.18      0.03         0.04
  YS6168YS6171                0.14      0.14      0.14      0.11         0.11
  YS6164YS6168                0.10      0.10      0.14      0.01         0.01
  YS6162YS6164                0.13      0.13      0.15      0.01         0.01
  YS6132YS6404                0.02      0.22      0.02      0.38         0.02
  YSB1106YSB1105              0.08      0.23      0.08      0.27         0.08
  YSB1109YSB1106              0.23      0.29      0.23      0.43         0.23
  YSB1112YSB1109              0.29      0.29      0.29      0.32         0.29
  YSB1115YSB1112              0.27      0.27      0.29      0.10         0.10
  YSB1118YSB1115              0.30      0.30      0.30      0.33         0.30
  YSB1121YSB1118              0.30      0.33      0.30      0.44         0.30
  YSB1124YSB1121              0.30      0.30      0.33      0.01         0.01
  YSB1105YSB1103              0.16      0.16      0.21      0.21         0.16
  YS02001745YS02001748        0.01      0.01      0.01      0.01         0.01
  YS02001748YS02001751        0.02      0.02      0.06      0.01         0.01
  YS02001751YS02001754        0.06      0.06      0.13      0.01         0.01
  YS02001754YS02001757        0.14      0.14      0.23      0.01         0.01
  YS02001882YS02001884        0.71      0.71      0.72      0.01         0.01
  YS02001884YS02001887        0.74      0.74      0.76      0.01         0.01
  YS02001890YS02001895        0.70      0.70      0.81      0.01         0.01
  YS02001895YS02001898        0.69      0.69      0.70      0.01         0.01
  YS02001898YS02001901        0.70      0.70      0.74      0.01         0.01
  YS02001901YS02001904        0.73      0.73      0.74      0.01         0.01
  YS02001904YS02001907        0.73      0.73      1.08      0.01         0.01
  YS02001887YS02001890        0.78      0.78      0.79      0.23         0.01
  YS02004309YS02004307        0.21      1.10      0.21      1.08         0.21
  YS02004319YS02004316        0.44      0.44      0.46      0.01         0.01
  YS02005376YS02005378        1.69      1.69      1.84      0.01         0.01
  YS02005378YS02005381        1.82      1.82      1.84      0.26         0.01
  YS02005381YS02005384        1.55      1.55      1.82      1.83         0.01
  YS02005598YS02005374        0.27      0.27      0.29      0.29         0.27
  YS02005602YS02005603        0.23      0.56      0.23      0.71         0.23
  YS02005603YS02005607        0.23      0.23      0.25      0.25         0.23
  YS02005618YS02005619        0.01      0.01      0.01      0.03         0.01
  YS02005621YS02005622        0.01      0.01      0.01      0.08         0.01
  YS02005624YS02005625        0.01      0.01      0.28      0.04         0.01
  YS02005630YS02005631        0.01      0.06      0.01      0.11         0.01
  YS02005633YS02005634        0.01      0.05      0.01      0.08         0.01
  YS02005636YS02005637        0.01      0.10      0.01      0.14         0.01
  YS02005639YS02005640        0.01      0.07      0.01      0.10         0.01
  YS02005627YS02005628        0.01      0.06      0.01      0.29         0.01
  YS02005644YS02005645        0.01      0.18      0.01      0.21         0.01
  YS02005650YS02005651        0.01      0.17      0.01      0.26         0.01
  YS02005653YS02005654        0.14      0.14      0.15      0.15         0.14
  YS02005654YS02005655        0.01      0.15      0.01      0.25         0.01
  YS02005658YS02005659        0.01      0.09      0.01      0.13         0.01
  YS02005661YS02005662        0.01      0.14      0.01      0.26         0.01
  YS02005664YS02005665        0.01      0.15      0.01      0.54         0.01
  YS02005667YS02005668        0.01      0.01      0.62      0.18         0.01
  YS02005647YS02005648        0.01      0.33      0.01      0.49         0.01
  YS02004312YS02004309        0.72      0.72      1.10      0.01         0.01
  YS02004314YS02004312        0.49      0.49      0.72      0.01         0.01
  YS02004316YS02004314        0.46      0.46      0.49      0.39         0.39
  YS02004320YS02004319        0.01      0.01      0.35      0.01         0.01
  YS6404YS6401                0.01      0.02      0.01      0.83         0.01
  YSB1132YSB1135              0.72      0.72      0.79      0.01         0.01
  YSB1135YSB1138              0.79      0.79      0.82      0.01         0.01
  YSB1138YSB1141              0.82      0.82      0.93      0.50         0.50
  YSB1141YSB1145              0.90      0.90      0.93      0.49         0.46
  YSB1148YSB1151              1.03      1.03      1.33      0.01         0.01
  YSB1151YSB1154              1.14      1.14      1.53      0.01         0.01
  YSB1154YSB6556              1.19      1.19      1.53      0.52         0.01
  YSB1128YSB1132              0.70      0.70      0.72      0.01         0.01
  YSB1145YSB1148              0.93      0.93      1.03      0.01         0.01
  YSB1198YSB1195              0.33      0.33      0.66      0.01         0.01
  YSB1195YSB1192              0.66      0.66      0.69      0.01         0.01
  YSB1192YSB1189              0.69      0.69      0.73      0.01         0.01
  YSB1186YSB1183              0.79      0.79      0.93      0.01         0.01
  YSB1183YSB1180              0.93      0.93      0.97      0.26         0.27
  YSB1180YSB1177              0.97      0.97      1.38      0.01         0.01
  YSB1177YSB1174              1.38      1.38      1.56      0.27         0.28
  YSB1174YSB1171              1.32      1.32      1.61      0.21         0.22
  YSB1171HS02004479           1.02      1.02      1.49      0.01         0.01
  HS02003001HS02003166        0.01      0.01      0.08      0.01         0.01
  YS02004307HS02004052        0.01      0.01      0.25      0.01         0.01
  HS02004881HS02006253        0.87      0.87      1.55      0.01         0.01
  WS0200404049WS6136          0.23      0.23      0.33      0.01         0.01
  HS02003125WS02003215        1.53      1.53      1.56      0.01         0.01
  YS02001793JiankangQianchi        0.01      0.01      2.02      0.01         0.01
  YS02001757CaochengTiaoxuchi        0.23      0.23      0.63      0.15         0.14
  WS02004041WS6409            1.29      1.29      1.37      1.39         1.29
  WSF200WS02003060            0.34      0.34      0.64      0.01         0.01
  HS02004053WS02004407        0.24      0.24      1.33      0.01         0.01
  HS02003036HS02003028        0.25      0.25      0.37      0.01         0.01
  
  
  ***************
  Pumping Summary
  ***************
  
  ---------------------------------------------------------------------------------------------------------
                                                  Min       Avg       Max     Total     Power    % Time Off
                        Percent   Number of      Flow      Flow      Flow    Volume     Usage    Pump Curve
  Pump                 Utilized   Start-Ups       LPS       LPS       LPS  10^6 ltr     Kw-hr    Low   High
  ---------------------------------------------------------------------------------------------------------
  CaochengSewagePump1     78.48           1      0.00    200.00    200.00     1.150      9.02    0.0    0.0
  CaochengSewagePump2     45.32           1      0.00    200.00    200.00     0.664      5.59    0.0    0.0
  CaochengRainPump1       42.11           1      0.00    683.00    683.00     2.107      3.47    0.0   33.7
  CaochengRainPump2       37.15           1      0.00    683.00    683.00     1.859      2.92    0.0   38.3
  JiankangSewagePump      74.66           1      0.00    300.00    300.00     1.641     25.72    0.0    0.0
  JiankangRainPump1       41.06           5      0.00   1000.00   1000.00     3.008     20.08    0.0    0.0
  JiankangRainPump2        0.00           0      0.00      0.00      0.00     0.000      0.00    0.0    0.0
  XierchiSewagePump1      91.80           1      0.00     95.00     95.00     0.639      3.95    0.0    0.0
  XierchiSewagePump2      76.21           1      0.00     95.00     95.00     0.530      3.11    0.0    0.0
  XierchiSewagePump3       0.00           0      0.00      0.00      0.00     0.000      0.00    0.0    0.0
  XierchiSewagePump4       0.00           0      0.00      0.00      0.00     0.000      0.00    0.0    0.0
  

  Analysis begun on:  Mon Nov 21 01:34:29 2022
  Analysis ended on:  Mon Nov 21 02:05:29 2022
  Total elapsed time: 00:31:00