
  EPA STORM WATER MANAGEMENT MODEL - VERSION 5.1 (Build 5.3.0.dev0)
  --------------------------------------------------------------

  WARNING 04: minimum elevation drop used for Conduit WS02004404WS02004405
  WARNING 03: negative offset ignored for Link YS02001904YS02001907
  
  *********************************************************
  NOTE: The summary statistics displayed in this report are
  based on results found at every computational time step,  
  not just on results from each reporting time step.
  *********************************************************
  
  ****************
  Analysis Options
  ****************
  Flow Units ............... LPS
  Process Models:
    Rainfall/Runoff ........ YES
    RDII ................... NO
    Snowmelt ............... NO
    Groundwater ............ NO
    Flow Routing ........... YES
    Ponding Allowed ........ NO
    Water Quality .......... NO
  Infiltration Method ...... HORTON
  Flow Routing Method ...... DYNWAVE
  Surcharge Method ......... EXTRAN
  Starting Date ............ 03/31/2017 00:00:00
  Ending Date .............. 03/31/2017 03:00:00
  Antecedent Dry Days ...... 8.0
  Report Time Step ......... 00:00:30
  Wet Time Step ............ 00:01:00
  Dry Time Step ............ 00:01:00
  Routing Time Step ........ 30.00 sec
  Variable Time Step ....... YES
  Maximum Trials ........... 8
  Number of Threads ........ 6
  Head Tolerance ........... 0.001500 m
  
  
  **************************        Volume         Depth
  Runoff Quantity Continuity     hectare-m            mm
  **************************     ---------       -------
  Initial LID Storage ......         0.378         3.209
  Total Precipitation ......        11.461        97.262
  Evaporation Loss .........         0.000         0.000
  Infiltration Loss ........         0.285         2.421
  Surface Runoff ...........         8.262        70.112
  Final Storage ............         3.304        28.035
  Continuity Error (%) .....        -0.097
  
  
  **************************        Volume        Volume
  Flow Routing Continuity        hectare-m      10^6 ltr
  **************************     ---------     ---------
  Dry Weather Inflow .......         0.171         1.707
  Wet Weather Inflow .......         8.238        82.383
  Groundwater Inflow .......         0.000         0.000
  RDII Inflow ..............         0.000         0.000
  External Inflow ..........         0.033         0.327
  External Outflow .........         4.579        45.792
  Flooding Loss ............         3.641        36.408
  Evaporation Loss .........         0.000         0.000
  Exfiltration Loss ........         0.000         0.000
  Initial Stored Volume ....         0.303         3.031
  Final Stored Volume ......         0.553         5.531
  Continuity Error (%) .....        -0.324
  
  
  *************************
  Highest Continuity Errors
  *************************
  Node WS02005193 (56.97%)
  Node YS02001884 (24.02%)
  Node YS02001774 (10.64%)
  Node YS02004320 (7.67%)
  Node HS02003116 (5.80%)
  
  
  ***************************
  Time-Step Critical Elements
  ***************************
  Link YS02005655YS02005657 (40.03%)
  Link WS02006252WS02006251 (22.40%)
  Link WS02004041WS6409 (20.55%)
  Link WS02003073WS02003076 (1.69%)
  Link WS02006280WS02006229 (1.44%)
  
  
  ********************************
  Highest Flow Instability Indexes
  ********************************
  Link WS02006238WS02006235 (71)
  Link WS02003215WS02003116 (67)
  Link WS02003200WS02003201 (66)
  Link WS02003122WS02003187 (63)
  Link WS02003203WS02003091 (63)
  
  
  *************************
  Routing Time Step Summary
  *************************
  Minimum Time Step           :     0.50 sec
  Average Time Step           :     0.96 sec
  Maximum Time Step           :    30.00 sec
  Percent in Steady State     :     0.00
  Average Iterations per Step :     6.33
  Percent Not Converging      :    39.42
  
  
  ***************************
  Subcatchment Runoff Summary
  ***************************
  
  ------------------------------------------------------------------------------------------------------------------------------
                            Total      Total      Total      Total     Imperv       Perv      Total       Total     Peak  Runoff
                           Precip      Runon       Evap      Infil     Runoff     Runoff     Runoff      Runoff   Runoff   Coeff
  Subcatchment                 mm         mm         mm         mm         mm         mm         mm    10^6 ltr      LPS
  ------------------------------------------------------------------------------------------------------------------------------
  sub0                      97.26       0.00       0.00       0.74      88.10       5.76      93.86        0.08    59.55   0.965
  sub1                      97.26       0.00       0.00       1.07      65.14       6.94      72.08        0.48   331.00   0.741
  sub2                      97.26       0.00       0.00       3.32      44.59      20.30      64.88        0.60   345.24   0.667
  sub3                      97.26       0.00       0.00       3.33      45.04      19.51      64.55        1.45   761.94   0.664
  sub4                      97.26       0.00       0.00       0.92      62.11       6.58      68.68        1.43   822.38   0.706
  sub5                      97.26       0.00       0.00       0.96      65.16       4.27      69.43        0.79   549.84   0.714
  sub6                      97.26       0.00       0.00       0.88      64.30       4.22      68.52        1.77  1171.70   0.705
  sub7                      97.26       0.00       0.00       0.80      69.44       5.95      75.39        0.25   189.96   0.775
  sub8                      97.26       0.00       0.00       0.74      65.71       5.63      71.34        0.46   333.92   0.734
  sub9                      97.26       0.00       0.00       0.76      67.31       5.77      73.08        0.35   254.87   0.751
  sub10                     97.26       0.00       0.00       0.86      66.90       5.05      71.96        0.79   560.02   0.740
  sub11                     97.26       0.00       0.00       0.76      67.90       5.13      73.03        0.85   625.55   0.751
  sub12                     97.26       0.00       0.00       1.47      60.54       7.80      68.35        0.60   468.48   0.703
  sub13                     97.26       0.00       0.00       3.56      60.86      25.40      86.26        1.02   645.43   0.887
  sub14                     97.26       0.00       0.00       0.82      66.91       5.74      72.64        0.69   499.21   0.747
  sub15                     97.26       0.00       0.00       2.83      50.89      17.97      68.86        1.18   776.32   0.708
  sub16                     97.26       0.00       0.00       3.13      50.61      20.81      71.42        0.75   533.59   0.734
  sub17                     97.26       0.00       0.00       3.14      49.54      19.47      69.01        0.59   421.36   0.710
  sub18                     97.26       0.00       0.00       0.80      67.57       5.79      73.37        0.58   446.26   0.754
  sub19                     97.26       0.00       0.00       3.10      49.13      18.43      67.57        0.21   152.18   0.695
  sub20                     97.26       0.00       0.00       0.84      66.82       5.73      72.55        0.51   379.50   0.746
  sub21                     97.26       0.00       0.00       1.18      67.75       7.97      75.72        0.38   294.63   0.778
  sub22                     97.26       0.00       0.00       4.26      47.00      28.14      75.14        4.75  2871.56   0.773
  sub23                     97.26       0.00       0.00       3.26      43.46      20.97      64.42        3.07  2062.78   0.662
  sub24                     97.26       0.00       0.00       1.39      64.89       9.09      73.97        2.65  2015.81   0.761
  sub25                     97.26       0.00       0.00       0.86      65.23       4.26      69.49        0.90   747.42   0.715
  sub26                     97.26       0.00       0.00       2.36      53.71      14.54      68.24        0.97   815.86   0.702
  sub27                     97.26       0.00       0.00       0.89      65.16       5.59      70.75        1.02   735.13   0.727
  sub28                     97.26       0.00       0.00       0.78      65.12       4.92      70.03        1.10   786.47   0.720
  sub29                     97.26       0.00       0.00       0.93      61.81       4.67      66.48        1.07   703.09   0.684
  sub30                     97.26       0.00       0.00       0.82      66.64       5.03      71.67        1.61  1264.11   0.737
  sub31                     97.26       0.00       0.00       1.75      67.55      11.88      79.43        1.68  1321.55   0.817
  sub32                     97.26       0.00       0.00       0.88      66.03       4.98      71.01        1.41  1069.57   0.730
  sub33                     97.26       0.00       0.00       1.26      65.74       8.47      74.21        1.36  1063.17   0.763
  sub34                     97.26       0.00       0.00       4.53      36.39      30.16      66.55        1.49  1046.52   0.684
  sub35                     97.26       0.00       0.00       0.78      71.17       5.36      76.54        0.27   237.54   0.787
  sub36                     97.26       0.00       0.00       2.14      53.71      12.99      66.70        0.58   476.66   0.686
  sub37                     97.26       0.00       0.00       3.56      44.40      24.04      68.44        0.52   412.29   0.704
  sub38                     97.26       0.00       0.00       3.27      47.10      21.61      68.71        1.30  1079.98   0.706
  sub39                     97.26       0.00       0.00       0.84      64.90       4.89      69.79        0.74   631.04   0.718
  sub40                     97.26       0.00       0.00       0.75      67.31       5.07      72.39        0.84   718.00   0.744
  sub41                     97.26       0.00       0.00       1.48      61.56      10.09      71.66        1.38  1120.44   0.737
  sub42                     97.26       0.00       0.00       0.79      66.79       5.72      72.51        0.73   611.61   0.746
  sub43                     97.26       0.00       0.00       3.91      54.32      27.59      81.91        0.67   466.77   0.842
  sub44                     97.26       0.00       0.00       0.83      66.86       4.38      71.24        0.81   580.27   0.732
  sub45                     97.26       0.00       0.00       1.75      57.68      10.10      67.78        1.24   914.71   0.697
  sub46                     97.26       0.00       0.00       5.50      26.18      36.25      62.43        0.44   277.48   0.642
  sub47                     97.26       0.00       0.00       0.97      65.46       4.94      70.40        0.54   408.89   0.724
  sub48                     97.26       0.00       0.00       0.78      66.91       5.73      72.64        0.55   417.20   0.747
  sub49                     97.26       0.00       0.00       0.90      65.26       4.93      70.19        0.64   470.28   0.722
  sub50                     97.26       0.00       0.00       0.81      65.05       4.91      69.96        0.49   361.75   0.719
  sub51                     97.26       0.00       0.00       0.71      66.67       5.03      71.70        0.34   260.01   0.737
  sub52                     97.26       0.00       0.00       0.85      68.93       4.52      73.45        0.80   576.16   0.755
  sub53                     97.26       0.00       0.00       0.84      67.52       5.10      72.62        0.73   553.76   0.747
  sub54                     97.26       0.00       0.00       0.87      63.92       4.19      68.11        0.41   283.52   0.700
  sub55                     97.26       0.00       0.00       0.73      66.30       5.01      71.31        0.57   404.36   0.733
  sub56                     97.26       0.00       0.00       1.79      66.41      13.00      79.41        1.13   697.52   0.816
  sub57                     97.26       0.00       0.00       3.24      63.84      23.08      86.92        0.56   343.25   0.894
  sub58                     97.26       0.00       0.00       6.59      19.78      39.07      58.85        2.18  1002.40   0.605
  sub59                     97.26       0.00       0.00       6.66      15.74      35.52      51.27        1.17   474.03   0.527
  sub60                     97.26       0.00       0.00       1.06      64.95       7.64      72.59        0.95   709.22   0.746
  sub61                     97.26       0.00       0.00       1.62      61.45      10.77      72.21        1.33   987.62   0.742
  sub62                     97.26       0.00       0.00       0.80      65.00       4.91      69.91        1.92  1342.09   0.719
  sub67                     97.26       0.00       0.00       1.01      64.90       4.90      69.80        1.30   926.92   0.718
  sub68                     97.26       0.00       0.00       1.30      65.42       9.13      74.55        2.05  1462.54   0.767
  sub71                     97.26       0.00       0.00       0.69      64.33       4.86      69.19        1.81  1190.48   0.711
  sub72                     97.26       0.00       0.00       0.77      67.31       4.43      71.74        0.99   602.45   0.738
  sub73                     97.26       0.00       0.00       2.11      65.88      15.00      80.88        0.08    63.53   0.832
  sub74                     97.26       0.00       0.00       2.99      52.59      20.97      73.56        0.12    91.81   0.756
  sub75                     97.26       0.00       0.00       2.79      53.95      19.68      73.64        0.16   130.04   0.757
  sub76                     97.26       0.00       0.00       1.73      66.33      12.50      78.83        0.19   152.11   0.811
  sub77                     97.26       0.00       0.00       1.60      65.99      11.63      77.61        0.12   100.33   0.798
  sub78                     97.26       0.00       0.00       1.46      62.61       8.07      70.67        0.19   151.72   0.727
  sub79                     97.26       0.00       0.00       2.47      65.10      17.42      82.52        0.21   158.06   0.848
  sub80                     97.26       0.00       0.00       3.17      54.49      22.65      77.14        0.23   171.76   0.793
  sub81                     97.26       0.00       0.00       3.63      52.27      25.62      77.90        0.24   172.21   0.801
  sub82                     97.26       0.00       0.00       3.53      49.87      24.59      74.46        0.22   166.78   0.766
  sub83                     97.26       0.00       0.00       3.57      48.10      24.82      72.92        0.25   185.97   0.750
  sub84                     97.26       0.00       0.00       3.20      48.84      21.98      70.82        0.38   278.08   0.728
  sub85                     97.26       0.00       0.00       2.30      64.61      17.27      81.89        0.36   267.58   0.842
  sub86                     97.26       0.00       0.00       2.51      61.24      18.20      79.44        0.38   284.77   0.817
  sub87                     97.26       0.00       0.00       3.65      59.52      26.84      86.36        0.26   189.39   0.888
  sub88                     97.26       0.00       0.00       3.51      59.70      25.84      85.53        0.26   193.62   0.879
  sub89                     97.26       0.00       0.00       3.05      58.69      22.38      81.07        0.22   168.12   0.834
  sub90                     97.26       0.00       0.00       2.66      63.08      19.83      82.92        0.20   158.17   0.853
  sub91                     97.26       0.00       0.00       2.68      63.37      20.03      83.40        0.15   123.75   0.857
  sub92                     97.26       0.00       0.00       3.24      62.31      23.92      86.23        0.13   108.77   0.887
  sub93                     97.26       0.00       0.00       3.24      62.93      24.17      87.11        0.16   133.61   0.896
  sub94                     97.26       0.00       0.00       3.25      63.27      24.19      87.46        0.19   152.33   0.899
  sub95                     97.26       0.00       0.00       3.04      63.17      22.03      85.21        0.13   106.17   0.876
  sub96                     97.26       0.00       0.00       2.35      69.64      16.90      86.55        0.16   140.88   0.890
  sub97                     97.26       0.00       0.00       5.66      29.34      39.09      68.43        0.16   135.55   0.704
  sub98                     97.26       0.00       0.00       6.51      20.67      43.94      64.62        0.21   140.43   0.664
  sub99                     97.26       0.00       0.00       6.92      14.93      44.73      59.66        0.21   114.45   0.613
  sub100                    97.26       0.00       0.00       6.91      14.87      43.12      57.99        0.20    99.17   0.596
  sub101                    97.26       0.00       0.00       6.86      14.67      42.45      57.12        0.19    93.50   0.587
  sub102                    97.26       0.00       0.00       6.63      16.73      39.71      56.45        0.17    79.31   0.580
  sub103                    97.26       0.00       0.00       6.86      15.63      40.69      56.32        0.27   118.57   0.579
  sub104                    97.26       0.00       0.00       6.80      15.40      39.86      55.26        0.29   127.06   0.568
  sub105                    97.26       0.00       0.00       8.52      18.04      52.83      70.87        0.40   157.92   0.729
  sub106                    97.26       0.00       0.00       6.89      14.75      41.75      56.50        0.29   132.88   0.581
  sub107                    97.26       0.00       0.00       7.01      13.26      43.62      56.89        0.40   194.82   0.585
  sub108                    97.26       0.00       0.00       7.08      12.59      45.88      58.47        0.54   299.14   0.601
  sub109                    97.26       0.00       0.00       5.32      22.44      32.73      55.17        0.79   517.23   0.567
  sub110                    97.26       0.00       0.00       1.79      59.78      11.24      71.02        1.49  1149.98   0.730
  sub111                    97.26       0.00       0.00       2.49      53.43      15.94      69.37        0.59   454.95   0.713
  sub112                    97.26       0.00       0.00       2.00      59.10      13.42      72.52        0.57   443.51   0.746
  sub113                    97.26       0.00       0.00       1.20      61.90       8.68      70.58        0.49   382.02   0.726
  sub114                    97.26       0.00       0.00       1.11      63.01       8.12      71.13        0.47   369.53   0.731
  sub115                    97.26       0.00       0.00       1.10      65.19       7.67      72.87        0.54   418.06   0.749
  sub116                    97.26       0.00       0.00       3.89      45.80      25.26      71.06        0.13    92.17   0.731
  sub117                    97.26       0.00       0.00       3.88      43.27      25.04      68.31        0.31   225.30   0.702
  

  ***********************
  LID Performance Summary
  ***********************

  --------------------------------------------------------------------------------------------------------------------
                                         Total      Evap     Infil   Surface    Drain    Initial     Final  Continuity
                                        Inflow      Loss      Loss   Outflow   Outflow   Storage   Storage       Error
  Subcatchment      LID Control             mm        mm        mm        mm        mm        mm        mm           %
  --------------------------------------------------------------------------------------------------------------------
  sub1              BioRententionCell     97.26      0.00      2.89      0.00      0.00     23.50    117.94       -0.05
  sub1              GreenRoof            97.26      0.00      0.00      0.00      0.00      7.05    104.31       -0.00
  sub2              BioRententionCell     97.26      0.00      2.89      0.00      0.00     23.50    117.94       -0.05
  sub2              GreenRoof            97.26      0.00      0.00      0.00      0.00      7.05    104.31       -0.00
  sub3              BioRententionCell     97.26      0.00      2.89      0.00      0.00     23.50    117.94       -0.05
  sub3              GreenRoof            97.26      0.00      0.00      0.00      0.00      7.05    104.31       -0.00
  sub4              BioRententionCell     97.26      0.00      2.89      0.00      0.00     23.50    117.94       -0.05
  sub4              GreenRoof            97.26      0.00      0.00      0.00      0.00      7.05    104.31       -0.00
  sub5              BioRententionCell     97.26      0.00      2.89      0.00      0.00     23.50    117.94       -0.05
  sub5              GreenRoof            97.26      0.00      0.00      0.00      0.00      7.05    104.31       -0.00
  sub6              BioRententionCell     97.26      0.00      2.89      0.00      0.00     23.50    117.94       -0.05
  sub6              GreenRoof            97.26      0.00      0.00      0.00      0.00      7.05    104.31       -0.00
  sub7              BioRententionCell     97.26      0.00      2.89      0.00      0.00     23.50    117.94       -0.05
  sub7              GreenRoof            97.26      0.00      0.00      0.00      0.00      7.05    104.31       -0.00
  sub8              BioRententionCell     97.26      0.00      2.89      0.00      0.00     23.50    117.94       -0.05
  sub8              GreenRoof            97.26      0.00      0.00      0.00      0.00      7.05    104.31       -0.00
  sub9              BioRententionCell     97.26      0.00      2.89      0.00      0.00     23.50    117.94       -0.05
  sub9              GreenRoof            97.26      0.00      0.00      0.00      0.00      7.05    104.31       -0.00
  sub10             BioRententionCell     97.26      0.00      2.89      0.00      0.00     23.50    117.94       -0.05
  sub10             GreenRoof            97.26      0.00      0.00      0.00      0.00      7.05    104.31       -0.00
  sub11             BioRententionCell     97.26      0.00      2.89      0.00      0.00     23.50    117.94       -0.05
  sub11             GreenRoof            97.26      0.00      0.00      0.00      0.00      7.05    104.31       -0.00
  sub12             BioRententionCell     97.26      0.00      2.89      0.00      0.00     23.50    117.94       -0.05
  sub12             GreenRoof            97.26      0.00      0.00      0.00      0.00      7.05    104.31       -0.00
  sub13             BioRententionCell     97.26      0.00      2.89      0.00      0.00     23.50    117.94       -0.05
  sub14             BioRententionCell     97.26      0.00      2.89      0.00      0.00     23.50    117.94       -0.05
  sub14             GreenRoof            97.26      0.00      0.00      0.00      0.00      7.05    104.31       -0.00
  sub15             BioRententionCell     97.26      0.00      2.89      0.00      0.00     23.50    117.94       -0.05
  sub15             GreenRoof            97.26      0.00      0.00      0.00      0.00      7.05    104.31       -0.00
  sub16             BioRententionCell     97.26      0.00      2.89      0.00      0.00     23.50    117.94       -0.05
  sub16             GreenRoof            97.26      0.00      0.00      0.00      0.00      7.05    104.31       -0.00
  sub17             BioRententionCell     97.26      0.00      2.89      0.00      0.00     23.50    117.94       -0.05
  sub17             GreenRoof            97.26      0.00      0.00      0.00      0.00      7.05    104.31       -0.00
  sub18             BioRententionCell     97.26      0.00      2.89      0.00      0.00     23.50    117.94       -0.05
  sub18             GreenRoof            97.26      0.00      0.00      0.00      0.00      7.05    104.31       -0.00
  sub19             BioRententionCell     97.26      0.00      2.89      0.00      0.00     23.50    117.94       -0.05
  sub19             GreenRoof            97.26      0.00      0.00      0.00      0.00      7.05    104.31       -0.00
  sub20             BioRententionCell     97.26      0.00      2.89      0.00      0.00     23.50    117.94       -0.05
  sub20             GreenRoof            97.26      0.00      0.00      0.00      0.00      7.05    104.31       -0.00
  sub21             BioRententionCell     97.26      0.00      2.89      0.00      0.00     23.50    117.94       -0.05
  sub21             GreenRoof            97.26      0.00      0.00      0.00      0.00      7.05    104.31       -0.00
  sub22             BioRententionCell     97.26      0.00      2.89      0.00      0.00     23.50    117.94       -0.05
  sub22             GreenRoof            97.26      0.00      0.00      0.00      0.00      7.05    104.31       -0.00
  sub23             BioRententionCell     97.26      0.00      2.89      0.00      0.00     23.50    117.94       -0.05
  sub23             GreenRoof            97.26      0.00      0.00      0.00      0.00      7.05    104.31       -0.00
  sub24             BioRententionCell     97.26      0.00      2.89      0.00      0.00     23.50    117.94       -0.05
  sub24             GreenRoof            97.26      0.00      0.00      0.00      0.00      7.05    104.31       -0.00
  sub25             BioRententionCell     97.26      0.00      2.89      0.00      0.00     23.50    117.94       -0.05
  sub25             GreenRoof            97.26      0.00      0.00      0.00      0.00      7.05    104.31       -0.00
  sub26             BioRententionCell     97.26      0.00      2.89      0.00      0.00     23.50    117.94       -0.05
  sub26             GreenRoof            97.26      0.00      0.00      0.00      0.00      7.05    104.31       -0.00
  sub27             BioRententionCell     97.26      0.00      2.89      0.00      0.00     23.50    117.94       -0.05
  sub27             GreenRoof            97.26      0.00      0.00      0.00      0.00      7.05    104.31       -0.00
  sub28             BioRententionCell     97.26      0.00      2.89      0.00      0.00     23.50    117.94       -0.05
  sub28             GreenRoof            97.26      0.00      0.00      0.00      0.00      7.05    104.31       -0.00
  sub29             BioRententionCell     97.26      0.00      2.89      0.00      0.00     23.50    117.94       -0.05
  sub29             GreenRoof            97.26      0.00      0.00      0.00      0.00      7.05    104.31       -0.00
  sub30             BioRententionCell     97.26      0.00      2.89      0.00      0.00     23.50    117.94       -0.05
  sub30             GreenRoof            97.26      0.00      0.00      0.00      0.00      7.05    104.31       -0.00
  sub31             BioRententionCell     97.26      0.00      2.89      0.00      0.00     23.50    117.94       -0.05
  sub31             GreenRoof            97.26      0.00      0.00      0.00      0.00      7.05    104.31       -0.00
  sub32             BioRententionCell     97.26      0.00      2.89      0.00      0.00     23.50    117.94       -0.05
  sub32             GreenRoof            97.26      0.00      0.00      0.00      0.00      7.05    104.31       -0.00
  sub33             BioRententionCell     97.26      0.00      2.89      0.00      0.00     23.50    117.94       -0.05
  sub33             GreenRoof            97.26      0.00      0.00      0.00      0.00      7.05    104.31       -0.00
  sub34             BioRententionCell     97.26      0.00      2.89      0.00      0.00     23.50    117.94       -0.05
  sub34             GreenRoof            97.26      0.00      0.00      0.00      0.00      7.05    104.31       -0.00
  sub35             BioRententionCell     97.26      0.00      2.89      0.00      0.00     23.50    117.94       -0.05
  sub35             GreenRoof            97.26      0.00      0.00      0.00      0.00      7.05    104.31       -0.00
  sub36             BioRententionCell     97.26      0.00      2.89      0.00      0.00     23.50    117.94       -0.05
  sub36             GreenRoof            97.26      0.00      0.00      0.00      0.00      7.05    104.31       -0.00
  sub37             BioRententionCell     97.26      0.00      2.89      0.00      0.00     23.50    117.94       -0.05
  sub37             GreenRoof            97.26      0.00      0.00      0.00      0.00      7.05    104.31       -0.00
  sub38             BioRententionCell     97.26      0.00      2.89      0.00      0.00     23.50    117.94       -0.05
  sub38             GreenRoof            97.26      0.00      0.00      0.00      0.00      7.05    104.31       -0.00
  sub39             BioRententionCell     97.26      0.00      2.89      0.00      0.00     23.50    117.94       -0.05
  sub39             GreenRoof            97.26      0.00      0.00      0.00      0.00      7.05    104.31       -0.00
  sub40             BioRententionCell     97.26      0.00      2.89      0.00      0.00     23.50    117.94       -0.05
  sub40             GreenRoof            97.26      0.00      0.00      0.00      0.00      7.05    104.31       -0.00
  sub41             BioRententionCell     97.26      0.00      2.89      0.00      0.00     23.50    117.94       -0.05
  sub41             GreenRoof            97.26      0.00      0.00      0.00      0.00      7.05    104.31       -0.00
  sub42             BioRententionCell     97.26      0.00      2.89      0.00      0.00     23.50    117.94       -0.05
  sub42             GreenRoof            97.26      0.00      0.00      0.00      0.00      7.05    104.31       -0.00
  sub43             BioRententionCell     97.26      0.00      2.89      0.00      0.00     23.50    117.94       -0.05
  sub44             BioRententionCell     97.26      0.00      2.89      0.00      0.00     23.50    117.94       -0.05
  sub44             GreenRoof            97.26      0.00      0.00      0.00      0.00      7.05    104.31       -0.00
  sub45             BioRententionCell     97.26      0.00      2.89      0.00      0.00     23.50    117.94       -0.05
  sub45             GreenRoof            97.26      0.00      0.00      0.00      0.00      7.05    104.31       -0.00
  sub46             BioRententionCell     97.26      0.00      2.89      0.00      0.00     23.50    117.94       -0.05
  sub46             GreenRoof            97.26      0.00      0.00      0.00      0.00      7.05    104.31       -0.00
  sub47             BioRententionCell     97.26      0.00      2.89      0.00      0.00     23.50    117.94       -0.05
  sub47             GreenRoof            97.26      0.00      0.00      0.00      0.00      7.05    104.31       -0.00
  sub48             BioRententionCell     97.26      0.00      2.89      0.00      0.00     23.50    117.94       -0.05
  sub48             GreenRoof            97.26      0.00      0.00      0.00      0.00      7.05    104.31       -0.00
  sub49             BioRententionCell     97.26      0.00      2.89      0.00      0.00     23.50    117.94       -0.05
  sub49             GreenRoof            97.26      0.00      0.00      0.00      0.00      7.05    104.31       -0.00
  sub50             BioRententionCell     97.26      0.00      2.89      0.00      0.00     23.50    117.94       -0.05
  sub50             GreenRoof            97.26      0.00      0.00      0.00      0.00      7.05    104.31       -0.00
  sub51             BioRententionCell     97.26      0.00      2.89      0.00      0.00     23.50    117.94       -0.05
  sub51             GreenRoof            97.26      0.00      0.00      0.00      0.00      7.05    104.31       -0.00
  sub52             BioRententionCell     97.26      0.00      2.89      0.00      0.00     23.50    117.94       -0.05
  sub52             GreenRoof            97.26      0.00      0.00      0.00      0.00      7.05    104.31       -0.00
  sub53             BioRententionCell     97.26      0.00      2.89      0.00      0.00     23.50    117.94       -0.05
  sub53             GreenRoof            97.26      0.00      0.00      0.00      0.00      7.05    104.31       -0.00
  sub54             BioRententionCell     97.26      0.00      2.89      0.00      0.00     23.50    117.94       -0.05
  sub54             GreenRoof            97.26      0.00      0.00      0.00      0.00      7.05    104.31       -0.00
  sub55             BioRententionCell     97.26      0.00      2.89      0.00      0.00     23.50    117.94       -0.05
  sub55             GreenRoof            97.26      0.00      0.00      0.00      0.00      7.05    104.31       -0.00
  sub56             BioRententionCell     97.26      0.00      2.89      0.00      0.00     23.50    117.94       -0.05
  sub56             GreenRoof            97.26      0.00      0.00      0.00      0.00      7.05    104.31       -0.00
  sub57             GreenRoof            97.26      0.00      0.00      0.00      0.00      7.05    104.31       -0.00
  sub58             BioRententionCell     97.26      0.00      2.89      0.00      0.00     23.50    117.94       -0.05
  sub59             BioRententionCell     97.26      0.00      2.89      0.00      0.00     23.50    117.94       -0.05
  sub60             BioRententionCell     97.26      0.00      2.89      0.00      0.00     23.50    117.94       -0.05
  sub60             GreenRoof            97.26      0.00      0.00      0.00      0.00      7.05    104.31       -0.00
  sub61             BioRententionCell     97.26      0.00      2.89      0.00      0.00     23.50    117.94       -0.05
  sub61             GreenRoof            97.26      0.00      0.00      0.00      0.00      7.05    104.31       -0.00
  sub62             BioRententionCell     97.26      0.00      2.89      0.00      0.00     23.50    117.94       -0.05
  sub62             GreenRoof            97.26      0.00      0.00      0.00      0.00      7.05    104.31       -0.00
  sub67             BioRententionCell     97.26      0.00      2.89      0.00      0.00     23.50    117.94       -0.05
  sub67             GreenRoof            97.26      0.00      0.00      0.00      0.00      7.05    104.31       -0.00
  sub68             BioRententionCell     97.26      0.00      2.89      0.00      0.00     23.50    117.94       -0.05
  sub68             GreenRoof            97.26      0.00      0.00      0.00      0.00      7.05    104.31       -0.00
  sub71             BioRententionCell     97.26      0.00      2.89      0.00      0.00     23.50    117.94       -0.05
  sub71             GreenRoof            97.26      0.00      0.00      0.00      0.00      7.05    104.31       -0.00
  sub72             BioRententionCell     97.26      0.00      2.89      0.00      0.00     23.50    117.94       -0.05
  sub72             GreenRoof            97.26      0.00      0.00      0.00      0.00      7.05    104.31       -0.00
  sub73             BioRententionCell     97.26      0.00      2.89      0.00      0.00     23.50    117.94       -0.05
  sub73             GreenRoof            97.26      0.00      0.00      0.00      0.00      7.05    104.31       -0.00
  sub74             BioRententionCell     97.26      0.00      2.89      0.00      0.00     23.50    117.94       -0.05
  sub74             GreenRoof            97.26      0.00      0.00      0.00      0.00      7.05    104.31       -0.00
  sub75             BioRententionCell     97.26      0.00      2.89      0.00      0.00     23.50    117.94       -0.05
  sub75             GreenRoof            97.26      0.00      0.00      0.00      0.00      7.05    104.31       -0.00
  sub76             BioRententionCell     97.26      0.00      2.89      0.00      0.00     23.50    117.94       -0.05
  sub76             GreenRoof            97.26      0.00      0.00      0.00      0.00      7.05    104.31       -0.00
  sub77             BioRententionCell     97.26      0.00      2.89      0.00      0.00     23.50    117.94       -0.05
  sub77             GreenRoof            97.26      0.00      0.00      0.00      0.00      7.05    104.31       -0.00
  sub78             BioRententionCell     97.26      0.00      2.89      0.00      0.00     23.50    117.94       -0.05
  sub78             GreenRoof            97.26      0.00      0.00      0.00      0.00      7.05    104.31       -0.00
  sub79             BioRententionCell     97.26      0.00      2.89      0.00      0.00     23.50    117.94       -0.05
  sub79             GreenRoof            97.26      0.00      0.00      0.00      0.00      7.05    104.31       -0.00
  sub80             BioRententionCell     97.26      0.00      2.89      0.00      0.00     23.50    117.94       -0.05
  sub80             GreenRoof            97.26      0.00      0.00      0.00      0.00      7.05    104.31       -0.00
  sub81             BioRententionCell     97.26      0.00      2.89      0.00      0.00     23.50    117.94       -0.05
  sub81             GreenRoof            97.26      0.00      0.00      0.00      0.00      7.05    104.31       -0.00
  sub82             BioRententionCell     97.26      0.00      2.89      0.00      0.00     23.50    117.94       -0.05
  sub82             GreenRoof            97.26      0.00      0.00      0.00      0.00      7.05    104.31       -0.00
  sub83             BioRententionCell     97.26      0.00      2.89      0.00      0.00     23.50    117.94       -0.05
  sub83             GreenRoof            97.26      0.00      0.00      0.00      0.00      7.05    104.31       -0.00
  sub84             BioRententionCell     97.26      0.00      2.89      0.00      0.00     23.50    117.94       -0.05
  sub84             GreenRoof            97.26      0.00      0.00      0.00      0.00      7.05    104.31       -0.00
  sub85             BioRententionCell     97.26      0.00      2.89      0.00      0.00     23.50    117.94       -0.05
  sub85             GreenRoof            97.26      0.00      0.00      0.00      0.00      7.05    104.31       -0.00
  sub86             BioRententionCell     97.26      0.00      2.89      0.00      0.00     23.50    117.94       -0.05
  sub86             GreenRoof            97.26      0.00      0.00      0.00      0.00      7.05    104.31       -0.00
  sub87             BioRententionCell     97.26      0.00      2.89      0.00      0.00     23.50    117.94       -0.05
  sub88             BioRententionCell     97.26      0.00      2.89      0.00      0.00     23.50    117.94       -0.05
  sub88             GreenRoof            97.26      0.00      0.00      0.00      0.00      7.05    104.31       -0.00
  sub89             BioRententionCell     97.26      0.00      2.89      0.00      0.00     23.50    117.94       -0.05
  sub89             GreenRoof            97.26      0.00      0.00      0.00      0.00      7.05    104.31       -0.00
  sub90             BioRententionCell     97.26      0.00      2.89      0.00      0.00     23.50    117.94       -0.05
  sub90             GreenRoof            97.26      0.00      0.00      0.00      0.00      7.05    104.31       -0.00
  sub91             BioRententionCell     97.26      0.00      2.89      0.00      0.00     23.50    117.94       -0.05
  sub91             GreenRoof            97.26      0.00      0.00      0.00      0.00      7.05    104.31       -0.00
  sub92             BioRententionCell     97.26      0.00      2.89      0.00      0.00     23.50    117.94       -0.05
  sub93             BioRententionCell     97.26      0.00      2.89      0.00      0.00     23.50    117.94       -0.05
  sub94             BioRententionCell     97.26      0.00      2.89      0.00      0.00     23.50    117.94       -0.05
  sub95             BioRententionCell     97.26      0.00      2.89      0.00      0.00     23.50    117.94       -0.05
  sub96             BioRententionCell     97.26      0.00      2.89      0.00      0.00     23.50    117.94       -0.05
  sub97             BioRententionCell     97.26      0.00      2.89      0.00      0.00     23.50    117.94       -0.05
  sub98             BioRententionCell     97.26      0.00      2.89      0.00      0.00     23.50    117.94       -0.05
  sub99             BioRententionCell     97.26      0.00      2.89      0.00      0.00     23.50    117.94       -0.05
  sub100            BioRententionCell     97.26      0.00      2.89      0.00      0.00     23.50    117.94       -0.05
  sub101            BioRententionCell     97.26      0.00      2.89      0.00      0.00     23.50    117.94       -0.05
  sub102            BioRententionCell     97.26      0.00      2.89      0.00      0.00     23.50    117.94       -0.05
  sub103            BioRententionCell     97.26      0.00      2.89      0.00      0.00     23.50    117.94       -0.05
  sub104            BioRententionCell     97.26      0.00      2.89      0.00      0.00     23.50    117.94       -0.05
  sub106            BioRententionCell     97.26      0.00      2.89      0.00      0.00     23.50    117.94       -0.05
  sub107            BioRententionCell     97.26      0.00      2.89      0.00      0.00     23.50    117.94       -0.05
  sub108            BioRententionCell     97.26      0.00      2.89      0.00      0.00     23.50    117.94       -0.05
  sub109            BioRententionCell     97.26      0.00      2.89      0.00      0.00     23.50    117.94       -0.05
  sub109            GreenRoof            97.26      0.00      0.00      0.00      0.00      7.05    104.31       -0.00
  sub110            BioRententionCell     97.26      0.00      2.89      0.00      0.00     23.50    117.94       -0.05
  sub110            GreenRoof            97.26      0.00      0.00      0.00      0.00      7.05    104.31       -0.00
  sub111            BioRententionCell     97.26      0.00      2.89      0.00      0.00     23.50    117.94       -0.05
  sub111            GreenRoof            97.26      0.00      0.00      0.00      0.00      7.05    104.31       -0.00
  sub112            BioRententionCell     97.26      0.00      2.89      0.00      0.00     23.50    117.94       -0.05
  sub112            GreenRoof            97.26      0.00      0.00      0.00      0.00      7.05    104.31       -0.00
  sub113            BioRententionCell     97.26      0.00      2.89      0.00      0.00     23.50    117.94       -0.05
  sub113            GreenRoof            97.26      0.00      0.00      0.00      0.00      7.05    104.31       -0.00
  sub114            BioRententionCell     97.26      0.00      2.89      0.00      0.00     23.50    117.94       -0.05
  sub114            GreenRoof            97.26      0.00      0.00      0.00      0.00      7.05    104.31       -0.00
  sub115            BioRententionCell     97.26      0.00      2.89      0.00      0.00     23.50    117.94       -0.05
  sub115            GreenRoof            97.26      0.00      0.00      0.00      0.00      7.05    104.31       -0.00
  sub116            BioRententionCell     97.26      0.00      2.89      0.00      0.00     23.50    117.94       -0.05
  sub116            GreenRoof            97.26      0.00      0.00      0.00      0.00      7.05    104.31       -0.00
  sub117            BioRententionCell     97.26      0.00      2.89      0.00      0.00     23.50    117.94       -0.05
  sub117            GreenRoof            97.26      0.00      0.00      0.00      0.00      7.05    104.31       -0.00
  
  ******************
  Node Depth Summary
  ******************
  
  ---------------------------------------------------------------------------------
                                 Average  Maximum  Maximum  Time of Max    Reported
                                   Depth    Depth      HGL   Occurrence   Max Depth
  Node                 Type       Meters   Meters   Meters  days hr:min      Meters
  ---------------------------------------------------------------------------------
  WS02001211           JUNCTION     1.00     2.31     7.15     0  00:48        1.78
  WS02001212           JUNCTION     0.76     1.97     7.03     0  00:48        1.55
  WS02001213           JUNCTION     1.00     2.22     6.98     0  00:48        1.85
  WS02003069           JUNCTION     0.95     1.69     6.28     0  00:52        1.68
  WS02003072           JUNCTION     1.02     1.59     5.96     0  00:52        1.58
  WS02003073           JUNCTION     1.24     1.71     5.77     0  00:51        1.70
  WS02003076           JUNCTION     0.98     1.36     5.58     0  00:52        1.36
  WS02003060           JUNCTION     0.84     1.68     6.61     0  00:51        1.67
  WS02003066           JUNCTION     0.51     1.17     6.72     0  00:51        1.16
  WS02003059           JUNCTION     1.07     1.98     6.67     0  00:48        1.92
  WS02003115           JUNCTION     1.98     2.76     9.62     0  00:34        2.74
  WS02003116           JUNCTION     2.13     3.03     9.74     0  00:25        2.94
  WS02003118           JUNCTION     2.11     2.90     9.52     0  00:25        2.90
  WS02003215           JUNCTION     2.01     2.80     9.66     0  00:34        2.80
  WS02003110           JUNCTION     1.63     2.33     9.58     0  00:51        2.33
  WS02003111           JUNCTION     1.75     2.35     9.44     0  00:34        2.35
  WS02005155           JUNCTION     1.60     2.42     9.73     0  00:51        2.42
  WS02005154           JUNCTION     1.36     2.29     9.92     0  00:51        2.29
  WS02005193           JUNCTION     1.45     3.22    11.04     0  00:46        3.17
  WS02005196           JUNCTION     1.42     3.31    11.16     0  00:46        3.27
  WS02003067           JUNCTION     0.83     1.48     6.80     0  00:51        1.48
  WS02004401           JUNCTION     1.46     2.53     8.53     0  00:49        2.45
  WS02004402           JUNCTION     1.46     2.55     8.51     0  00:49        2.47
  WS02004403           JUNCTION     1.44     2.55     8.48     0  00:49        2.47
  WS02004404           JUNCTION     1.49     2.61     8.46     0  00:49        2.52
  WS02004406           JUNCTION     1.43     2.55     8.38     0  00:49        2.50
  WS02004409           JUNCTION     1.20     2.35     8.12     0  00:49        2.30
  WS02004410           JUNCTION     1.10     2.10     7.82     0  00:51        2.09
  WS02004411           JUNCTION     1.02     1.88     7.56     0  00:51        1.88
  WS02004412           JUNCTION     0.93     1.65     7.29     0  00:51        1.63
  WS02004413           JUNCTION     0.97     1.55     7.02     0  00:51        1.55
  WS02004405           JUNCTION     1.47     2.59     8.44     0  00:49        2.51
  WS02006109           JUNCTION     1.93     2.64     9.26     0  00:44        2.64
  WS02006110           JUNCTION     1.74     2.48     9.07     0  00:54        2.48
  WS02006111           JUNCTION     1.15     2.00     8.70     0  00:57        1.99
  WS02006112           JUNCTION     1.76     2.68     8.56     0  00:00        2.68
  WS02006113           JUNCTION     1.22     2.00     8.89     0  00:49        1.99
  WS02006115           JUNCTION     1.43     2.42     8.56     0  00:49        2.38
  WS02006116           JUNCTION     1.48     2.51     8.55     0  00:49        2.45
  WS02006230           JUNCTION     2.01     2.65     9.39     0  00:40        2.65
  WS02006231           JUNCTION     1.61     2.19     9.31     0  00:59        2.19
  WS02006232           JUNCTION     1.65     2.18     9.22     0  00:40        2.18
  WS02006234           JUNCTION     1.49     1.96     9.12     0  00:38        1.96
  WS02006235           JUNCTION     1.47     1.93     9.10     0  01:23        1.93
  WS02006238           JUNCTION     1.48     1.93     9.08     0  01:13        1.93
  WS02006240           JUNCTION     1.27     1.63     8.92     0  01:28        1.62
  WS02006242           JUNCTION     1.25     1.55     8.82     0  00:26        1.55
  WS02006243           JUNCTION     1.09     1.37     8.79     0  00:32        1.37
  WS02006245           JUNCTION     1.02     1.27     8.76     0  00:32        1.27
  WS02006247           JUNCTION     1.00     1.23     8.73     0  01:04        1.23
  WS02006248           JUNCTION     0.91     1.10     8.69     0  00:28        1.10
  WS02006249           JUNCTION     0.91     1.09     8.69     0  00:28        1.09
  WS02006239           JUNCTION     1.38     1.79     9.00     0  01:15        1.78
  WS02006251           JUNCTION     1.36     2.21     9.88     0  00:46        2.21
  WS02006252           JUNCTION     0.95     1.50     9.74     0  00:46        1.50
  WS02006253           JUNCTION     1.61     3.23    10.87     0  00:46        3.17
  WS02006256           JUNCTION     1.87     2.35     9.28     0  00:17        2.35
  WS02004138           JUNCTION     0.12     0.14     7.39     0  00:33        0.14
  WS02004139           JUNCTION     0.93     2.27     7.18     0  00:48        1.71
  WS02004407           JUNCTION     0.84     2.08     8.40     0  00:49        1.96
  WS02006228           JUNCTION     2.14     3.03     9.68     0  00:51        3.03
  WS02006229           JUNCTION     2.24     3.23     9.92     0  00:53        3.22
  WS02006280           JUNCTION     0.95     1.75    10.02     0  00:54        1.74
  WS02006284           JUNCTION     1.13     1.95    10.35     0  00:51        1.94
  WS02006287           JUNCTION     0.87     1.75    10.70     0  00:49        1.73
  WS02003091           JUNCTION     2.85     4.43    10.23     0  00:00        3.91
  WS02003203           JUNCTION     2.79     3.83     9.82     0  00:00        3.83
  WS6145               JUNCTION     0.43     2.35    10.45     0  00:50        2.32
  WS6147               JUNCTION     0.36     2.27    10.54     0  00:50        2.25
  WS6150               JUNCTION     0.35     2.24    10.57     0  00:50        2.23
  WS6152               JUNCTION     0.36     2.20    10.54     0  00:50        2.20
  WS6155               JUNCTION     0.32     2.10    10.50     0  00:50        2.10
  WS6156               JUNCTION     0.30     2.05    10.52     0  00:50        2.05
  WS6136               JUNCTION     0.38     1.90    10.85     0  00:51        1.90
  WS6140               JUNCTION     0.47     2.46    10.40     0  00:51        2.44
  WS6142               JUNCTION     0.42     2.34    10.42     0  00:51        2.33
  WS6325               JUNCTION     0.70     2.74    10.39     0  00:55        2.73
  WS6327               JUNCTION     0.55     2.58    10.39     0  00:51        2.57
  WS6329               JUNCTION     0.50     2.52    10.40     0  00:51        2.51
  WS6332               JUNCTION     0.43     2.53    10.57     0  00:49        2.36
  WS6158               JUNCTION     0.28     2.05    10.59     0  00:50        2.05
  WS6335               JUNCTION     0.43     2.60    10.67     0  00:49        2.37
  WS6338               JUNCTION     0.37     2.55    10.75     0  00:49        2.39
  WS6340               JUNCTION     0.33     2.50    10.84     0  00:49        2.37
  WS6342               JUNCTION     0.26     2.50    11.10     0  00:49        2.12
  WS6135               JUNCTION     0.85     2.89    10.39     0  00:51        2.88
  WS6396               JUNCTION     0.54     2.02     9.57     0  00:51        2.01
  WS6399               JUNCTION     0.33     1.37     8.80     0  00:51        1.36
  WS02003082           JUNCTION     1.38     1.93     7.00     0  00:51        1.92
  WS02003077           JUNCTION     0.47     0.84     5.85     0  00:51        0.84
  WS02003080           JUNCTION     0.90     1.30     6.24     0  00:51        1.30
  WS02003083           JUNCTION     1.76     2.41     7.44     0  00:51        2.40
  WS02003084           JUNCTION     1.90     2.60     7.70     0  00:51        2.60
  WS02003085           JUNCTION     1.98     2.72     7.89     0  00:51        2.71
  WS02003086           JUNCTION     2.22     3.02     8.22     0  00:58        3.01
  WS02003087           JUNCTION     2.49     3.36     8.57     0  00:58        3.35
  WS02003088           JUNCTION     2.68     4.14     9.43     0  00:00        4.07
  WS02003089           JUNCTION     2.80     4.34     9.80     0  00:00        4.02
  WS02003090           JUNCTION     3.02     4.12     9.55     0  00:00        4.05
  WS02003081           JUNCTION     1.12     1.62     6.66     0  00:51        1.61
  WS02003122           JUNCTION     2.30     3.11     9.48     0  00:50        3.10
  WS02003187           JUNCTION     2.32     3.11     9.44     0  00:46        3.11
  WS02003188           JUNCTION     2.30     2.97     9.23     0  00:46        2.97
  WS02003190           JUNCTION     2.29     2.84     9.04     0  00:32        2.84
  WS02003193           JUNCTION     2.27     2.85     9.09     0  00:24        2.85
  WS02003195           JUNCTION     2.30     2.93     9.18     0  00:32        2.93
  WS02003196           JUNCTION     2.40     3.13     9.31     0  00:51        3.13
  WS02003198           JUNCTION     2.43     3.22     9.40     0  00:51        3.22
  WS02003200           JUNCTION     2.19     2.99     9.43     0  00:32        2.93
  WS02003201           JUNCTION     2.46     3.22     9.36     0  00:32        3.22
  WS02003202           JUNCTION     2.61     4.17    10.23     0  00:00        3.48
  WS02004041           JUNCTION     0.65     0.98     5.34     0  00:52        0.98
  WSA6400              JUNCTION     1.14     2.43     8.27     0  00:51        2.41
  WS6400               JUNCTION     0.49     1.69     8.35     0  00:51        1.69
  WSF208               JUNCTION     0.84     1.95     8.04     0  00:50        1.94
  WSF207               JUNCTION     0.73     1.70     7.83     0  00:50        1.69
  WSF206               JUNCTION     0.81     1.74     7.67     0  00:50        1.73
  WSF205               JUNCTION     0.74     1.62     7.52     0  00:51        1.60
  WSF204               JUNCTION     1.27     2.17     7.33     0  00:51        2.16
  WSF203               JUNCTION     0.65     1.37     7.07     0  00:51        1.35
  WSF202               JUNCTION     0.57     1.19     6.92     0  00:51        1.19
  WSF201               JUNCTION     0.49     1.04     6.77     0  00:51        1.03
  WSF200               JUNCTION     0.64     1.45     6.69     0  00:51        1.45
  HS02004901           JUNCTION     0.71     1.42    11.24     0  00:44        1.42
  HS02004881           JUNCTION     0.56     2.15    11.18     0  00:46        1.90
  HS02004876           JUNCTION     0.68     2.15    11.18     0  00:51        2.15
  HS02004870           JUNCTION     0.58     2.10    11.39     0  00:46        2.04
  HS02004862           JUNCTION     0.59     2.00    11.38     0  00:46        2.00
  HS02004856           JUNCTION     0.62     2.07    11.50     0  00:46        2.03
  HS02004852           JUNCTION     0.56     2.12    11.63     0  00:46        1.98
  HS02004848           JUNCTION     0.54     2.07    11.67     0  00:46        1.92
  HS02004842           JUNCTION     0.85     2.22    11.49     0  00:46        2.22
  HS02004837           JUNCTION     0.57     1.98    11.56     0  00:46        1.92
  HS02004830           JUNCTION     0.64     2.03    11.50     0  00:46        1.99
  HS02004824           JUNCTION     0.68     2.01    11.41     0  00:46        2.01
  HS02004817           JUNCTION     1.17     2.44    11.29     0  00:46        2.41
  HS02004807           JUNCTION     0.85     1.92    11.09     0  00:46        1.92
  HS02004802           JUNCTION     0.85     1.80    10.93     0  00:49        1.80
  HS02004799           JUNCTION     0.95     1.76    10.97     0  00:45        1.76
  HS02004792           JUNCTION     0.75     1.60    11.12     0  00:44        1.60
  HS02004788           JUNCTION     0.56     1.42    11.32     0  00:44        1.42
  HS02004785           JUNCTION     0.60     1.49    11.39     0  00:44        1.44
  HS02004777           JUNCTION     0.73     1.48    11.28     0  00:44        1.48
  HS02004770           JUNCTION     0.71     1.42    11.25     0  00:44        1.42
  HS02004480           JUNCTION     0.85     1.67    10.91     0  00:46        1.63
  HS02004479           JUNCTION     0.89     1.69    10.89     0  00:46        1.67
  HS02004478           JUNCTION     0.74     1.59    10.82     0  00:49        1.58
  HS02004053           JUNCTION     0.29     1.90    10.67     0  00:49        1.09
  HS02004052           JUNCTION     0.36     1.50    11.15     0  00:49        1.38
  HS02004049           JUNCTION     0.22     1.03    11.71     0  00:50        0.86
  HS02004048           JUNCTION     0.50     1.70    12.60     0  00:48        1.70
  HS02004046           JUNCTION     0.47     1.80    13.52     0  00:49        1.80
  HS02004043           JUNCTION     0.27     2.24    14.93     0  00:51        2.24
  HS02004041           JUNCTION     0.15     1.57    17.01     0  00:51        1.29
  HS02004038           JUNCTION     0.14     0.38    19.07     0  00:52        0.38
  HS02004036           JUNCTION     0.00     0.00    22.46     0  00:00        0.00
  HS02004034           JUNCTION     0.00     0.00    26.83     0  00:00        0.00
  HS02004028           JUNCTION     0.19     0.51    37.36     0  00:48        0.51
  HS02004027           JUNCTION     0.15     0.34    36.47     0  00:48        0.34
  HS02004026           JUNCTION     0.15     0.35    35.75     0  00:48        0.35
  HS02004024           JUNCTION     0.16     0.42    34.63     0  00:49        0.42
  HS02004022           JUNCTION     0.22     0.80    33.84     0  00:48        0.80
  HS02004021           JUNCTION     0.26     0.81    32.54     0  00:46        0.81
  HS02004019           JUNCTION     0.33     0.80    31.76     0  00:45        0.80
  HS02004018           JUNCTION     0.22     0.60    33.81     0  00:48        0.60
  HS02004017           JUNCTION     0.20     0.53    34.37     0  00:48        0.53
  HS02004013           JUNCTION     0.13     0.46    35.59     0  00:51        0.45
  HS02004010           JUNCTION     0.05     0.17    38.04     0  00:51        0.17
  HS02003174           JUNCTION     0.18     0.46     6.00     0  00:52        0.46
  HS02003171           JUNCTION     0.20     0.52     6.20     0  00:52        0.52
  HS02003170           JUNCTION     0.24     0.48     6.93     0  00:52        0.48
  HS02003168           JUNCTION     0.12     0.32     6.81     0  00:52        0.32
  HS02003166           JUNCTION     0.23     0.49     6.96     0  00:52        0.49
  HS02003162           JUNCTION     0.22     0.42    30.67     0  00:45        0.42
  HS02003160           JUNCTION     0.16     0.37    28.43     0  00:51        0.37
  HS02003150           JUNCTION     0.17     0.39    26.41     0  00:51        0.39
  HS02003148           JUNCTION     0.19     0.50    22.24     0  00:51        0.50
  HS02003145           JUNCTION     0.25     0.81    14.68     0  00:49        0.81
  HS02003143           JUNCTION     0.36     0.80    13.27     0  00:42        0.80
  HS02003138           JUNCTION     0.21     0.49     6.98     0  01:38        0.49
  HS02003136           JUNCTION     1.42     2.28    10.00     0  00:00        2.28
  HS02003125           JUNCTION     1.53     2.38     9.83     0  00:34        2.29
  HS02003122           JUNCTION     1.58     2.46     9.89     0  00:34        2.39
  HS02003119           JUNCTION     1.34     2.52    10.23     0  00:34        2.18
  HS02003116           JUNCTION     1.03     2.43    10.55     0  00:34        1.77
  HS02003111           JUNCTION     0.46     0.88     9.89     0  00:51        0.88
  HS02003108           JUNCTION     0.37     0.97    10.09     0  00:46        0.82
  HS02003100           JUNCTION     0.26     0.79    10.03     0  00:52        0.78
  HS02003088           JUNCTION     0.22     0.80    10.09     0  00:52        0.77
  HS02003084           JUNCTION     0.09     0.67    10.11     0  00:52        0.65
  HS02003079           JUNCTION     0.06     0.58    10.09     0  00:52        0.57
  HS02003077           JUNCTION     0.02     0.35    10.09     0  00:52        0.35
  HS02003065           JUNCTION     0.66     1.64    10.87     0  00:50        1.64
  HS02003056           JUNCTION     0.69     1.76    10.70     0  00:48        1.73
  HS02003053           JUNCTION     0.48     1.66    10.96     0  00:40        1.61
  HS02003042           JUNCTION     0.33     1.69    11.35     0  00:48        1.38
  HS02003039           JUNCTION     0.37     1.76    11.42     0  00:48        1.47
  HS02003036           JUNCTION     0.19     1.41    11.47     0  00:48        1.24
  HS02003028           JUNCTION     0.31     1.40    11.14     0  00:48        1.40
  HS02003021           JUNCTION     0.33     1.55    10.92     0  00:47        1.49
  HS02003018           JUNCTION     0.34     1.48    10.69     0  00:47        1.48
  HS02003017           JUNCTION     0.35     1.48    10.64     0  00:47        1.48
  HS02003013           JUNCTION     0.34     1.47    10.52     0  00:47        1.42
  HS02003010           JUNCTION     0.36     1.46    10.26     0  00:47        1.29
  HS02003007           JUNCTION     0.32     1.32     9.94     0  00:47        1.09
  HS02003004           JUNCTION     0.40     1.06     9.38     0  00:47        0.98
  HS02003001           JUNCTION     0.11     0.30     8.59     0  00:52        0.30
  YS02001738           JUNCTION     0.00     0.00     8.89     0  00:00        0.00
  YS02001739           JUNCTION     0.00     0.00     8.37     0  00:00        0.00
  YS02001742           JUNCTION     0.00     0.00     8.49     0  00:00        0.00
  YS02001745           JUNCTION     0.14     0.38     7.89     0  00:53        0.38
  YS02001748           JUNCTION     0.17     0.82     7.89     0  00:53        0.81
  YS02001751           JUNCTION     0.18     1.75     8.63     0  00:53        0.92
  YS02001754           JUNCTION     0.21     2.20     8.81     0  00:52        2.12
  YS02001762           JUNCTION     0.41     2.15     8.55     0  00:51        2.09
  YS02001765           JUNCTION     0.39     2.10     8.55     0  00:52        1.99
  YS02001767           JUNCTION     0.41     2.03     8.52     0  00:51        1.91
  YS02001770           JUNCTION     0.47     1.95     8.44     0  00:51        1.89
  YS02001774           JUNCTION     0.54     2.05     8.47     0  00:51        1.96
  YS02001779           JUNCTION     0.29     1.68     8.37     0  00:51        1.68
  YS02001882           JUNCTION     0.75     1.83     8.55     0  00:46        1.66
  YS02001884           JUNCTION     0.84     1.93     8.55     0  00:46        1.76
  YS02001759           JUNCTION     0.41     2.21     8.57     0  00:51        2.21
  YS02001887           JUNCTION     0.92     1.96     8.50     0  00:46        1.84
  YS02001890           JUNCTION     0.95     1.81     8.32     0  00:46        1.81
  YS02001898           JUNCTION     0.72     1.62     8.35     0  00:46        1.56
  YS02001901           JUNCTION     0.82     1.71     8.32     0  00:46        1.67
  YS02001904           JUNCTION     0.80     1.67     8.30     0  00:46        1.63
  YS02001907           JUNCTION     1.12     1.96     8.25     0  00:46        1.96
  YS02001910           JUNCTION     0.94     2.10     8.61     0  00:46        1.96
  YS02001915           JUNCTION     0.78     2.00     8.72     0  00:46        1.91
  YS02001918           JUNCTION     0.51     1.81     8.88     0  00:47        1.62
  YS02001920           JUNCTION     0.60     2.14     9.15     0  00:49        1.70
  YS02001923           JUNCTION     0.42     2.03     9.29     0  00:49        1.47
  YS02001926           JUNCTION     0.43     1.90     9.35     0  00:49        1.31
  YS02001929           JUNCTION     0.29     1.78     9.47     0  00:49        1.11
  YS02001932           JUNCTION     0.19     1.75     9.55     0  00:49        1.51
  YS02001935           JUNCTION     0.14     1.75     9.68     0  00:49        0.88
  YS02001757           JUNCTION     0.40     2.10     8.36     0  00:51        2.10
  YS02001895           JUNCTION     0.71     1.59     8.34     0  00:46        1.56
  YS02005679           JUNCTION     0.00     0.00    10.24     0  00:00        0.00
  YS02005559           JUNCTION     0.09     0.20    10.15     0  00:53        0.20
  YS02005651           JUNCTION     0.07     0.18    10.95     0  00:52        0.18
  YS02005670           JUNCTION     0.07     0.20    10.66     0  00:51        0.20
  YS02005547           JUNCTION     0.05     0.14    10.68     0  00:51        0.14
  YS02005549           JUNCTION     0.07     0.22    11.13     0  00:51        0.21
  YS02005550           JUNCTION     0.09     0.26    10.89     0  00:52        0.26
  YS02005551           JUNCTION     0.06     0.14    10.51     0  00:52        0.14
  YS02005553           JUNCTION     0.11     0.27    10.63     0  00:52        0.27
  YS02005554           JUNCTION     0.06     0.13    10.37     0  00:53        0.13
  YS02005556           JUNCTION     0.12     0.26    10.31     0  00:53        0.26
  YS02005557           JUNCTION     0.06     0.14    10.10     0  00:53        0.14
  YS02005560           JUNCTION     0.07     0.15     9.89     0  00:53        0.15
  YS02005562           JUNCTION     0.11     0.24     9.97     0  00:55        0.23
  YS02005563           JUNCTION     0.06     0.13     9.79     0  00:53        0.13
  YS02005565           JUNCTION     0.10     0.20     9.91     0  00:53        0.20
  YS02005566           JUNCTION     0.08     0.17     9.56     0  00:53        0.17
  YS02005568           JUNCTION     0.12     0.27     9.78     0  00:51        0.27
  YS02005569           JUNCTION     0.09     0.19     9.52     0  00:53        0.19
  YS02005598           JUNCTION     0.22     1.07    10.91     0  00:48        1.07
  YS02005600           JUNCTION     0.19     1.02    10.68     0  00:48        1.02
  YS02005602           JUNCTION     0.44     2.15    10.43     0  00:48        2.15
  YS02005603           JUNCTION     0.14     0.97     9.09     0  00:48        0.58
  YS02005609           JUNCTION     0.08     0.21     9.11     0  00:52        0.21
  YS02005653           JUNCTION     0.12     0.78    11.74     0  00:51        0.77
  YS02005654           JUNCTION     0.13     0.59    11.34     0  00:51        0.58
  YS02005655           JUNCTION     0.05     0.14    10.78     0  00:52        0.14
  YS02005595           JUNCTION     0.31     1.36    11.04     0  00:46        1.36
  YS02005658           JUNCTION     0.11     0.50    11.41     0  00:50        0.43
  YS02005659           JUNCTION     0.06     0.15    10.81     0  00:52        0.15
  YS02005661           JUNCTION     0.14     0.60    11.31     0  00:51        0.60
  YS02005662           JUNCTION     0.05     0.14    10.75     0  00:52        0.14
  YS02005664           JUNCTION     0.15     0.59    11.17     0  00:52        0.59
  YS02005665           JUNCTION     0.05     0.12    10.69     0  00:52        0.12
  YS02005668           JUNCTION     0.05     0.13    10.29     0  00:52        0.13
  YS02005667           JUNCTION     0.28     0.75    10.77     0  00:51        0.75
  YS02005571           JUNCTION     0.18     0.51     9.99     0  00:52        0.50
  YS02005572           JUNCTION     0.12     0.26     9.62     0  00:53        0.26
  YS02005576           JUNCTION     0.10     0.24     9.99     0  00:53        0.24
  YS02005577           JUNCTION     0.09     0.21     9.69     0  00:53        0.21
  YS02005579           JUNCTION     0.25     1.12    10.74     0  00:50        1.12
  YS02005580           JUNCTION     0.15     0.91    10.44     0  00:50        0.69
  YS02005582           JUNCTION     0.28     0.86    10.94     0  00:49        0.86
  YS02005583           JUNCTION     0.15     0.73    10.73     0  00:49        0.41
  YS02005612           JUNCTION     0.41     1.47     9.60     0  00:52        1.47
  YS02005615           JUNCTION     0.06     0.15    11.64     0  00:51        0.15
  YS02005616           JUNCTION     0.05     0.12    10.94     0  00:51        0.12
  YS02005618           JUNCTION     0.09     0.26    11.11     0  00:51        0.26
  YS02005619           JUNCTION     0.05     0.14    10.69     0  00:51        0.14
  YS02005621           JUNCTION     0.09     0.33    11.44     0  00:51        0.30
  YS02005622           JUNCTION     0.04     0.12    11.08     0  00:51        0.12
  YS02005625           JUNCTION     0.04     0.10    11.12     0  00:51        0.10
  YS02005627           JUNCTION     0.11     0.45    11.38     0  00:50        0.40
  YS02005628           JUNCTION     0.04     0.11    11.01     0  00:51        0.11
  YS02005630           JUNCTION     0.10     0.57    11.65     0  00:50        0.41
  YS02005631           JUNCTION     0.05     0.13    11.00     0  00:52        0.13
  YS02005633           JUNCTION     0.10     0.48    11.61     0  00:51        0.48
  YS02005634           JUNCTION     0.05     0.14    10.98     0  00:51        0.14
  YS02005636           JUNCTION     0.12     0.58    11.58     0  00:52        0.58
  YS02005637           JUNCTION     0.06     0.17    10.93     0  00:52        0.17
  YS02005639           JUNCTION     0.11     0.50    11.13     0  00:50        0.48
  YS02005640           JUNCTION     0.06     0.17    10.49     0  00:52        0.17
  YS02005642           JUNCTION     0.08     0.22    11.05     0  00:52        0.22
  YS02005644           JUNCTION     0.16     0.87    11.98     0  00:50        0.87
  YS02005645           JUNCTION     0.08     0.22    11.03     0  00:51        0.22
  YS02005647           JUNCTION     0.22     1.03    11.92     0  00:50        1.03
  YS02005648           JUNCTION     0.09     0.23    11.02     0  00:50        0.23
  YS02005650           JUNCTION     0.14     0.66    11.55     0  00:51        0.66
  YS02005671           JUNCTION     0.04     0.10    10.32     0  00:51        0.10
  YS02005673           JUNCTION     0.08     0.22    10.58     0  00:51        0.22
  YS02005674           JUNCTION     0.05     0.14    10.03     0  00:51        0.14
  YS02005676           JUNCTION     0.00     0.00    10.24     0  00:00        0.00
  YS02005680           JUNCTION     0.05     0.13    10.23     0  00:51        0.13
  YS02005682           JUNCTION     0.00     0.00    10.06     0  00:00        0.00
  YS02005683           JUNCTION     0.03     0.08     9.98     0  00:51        0.08
  YS02005376           JUNCTION     0.70     1.01    11.10     0  00:31        1.01
  YS02005378           JUNCTION     1.24     1.62    11.15     0  00:31        1.62
  YS02005381           JUNCTION     1.13     1.57    11.20     0  00:31        1.57
  YS02005624           JUNCTION     0.23     0.54    11.42     0  00:51        0.54
  YS02005384           JUNCTION     0.36     0.80    10.46     0  00:31        0.53
  YS02005677           JUNCTION     0.06     0.15    10.23     0  00:51        0.15
  YSB1105              JUNCTION     0.29     1.35    10.83     0  00:53        0.77
  YSB1106              JUNCTION     0.28     1.72    11.56     0  00:49        0.87
  YSB1109              JUNCTION     0.36     1.70    11.64     0  00:49        1.19
  YSB1112              JUNCTION     0.37     1.77    11.90     0  00:53        1.41
  YSB1115              JUNCTION     0.34     1.90    12.20     0  00:49        1.39
  YSB1118              JUNCTION     0.35     1.80    12.34     0  00:49        1.49
  YSB1121              JUNCTION     0.42     1.70    12.37     0  00:49        1.70
  YSB1124              JUNCTION     0.28     1.60    12.43     0  00:49        1.55
  YSB1128              JUNCTION     0.42     1.85    12.43     0  00:45        1.50
  YSB1132              JUNCTION     0.47     1.90    12.35     0  00:45        1.62
  YSB1228              JUNCTION     0.06     0.17    11.01     0  00:51        0.17
  YSB1202              JUNCTION     0.88     1.50    12.39     0  00:42        1.46
  YSB1135              JUNCTION     0.58     2.00    12.26     0  00:45        1.81
  YSB1138              JUNCTION     0.67     1.90    12.07     0  00:45        1.90
  YSB1141              JUNCTION     0.72     2.00    11.83     0  00:45        1.85
  YSB1145              JUNCTION     0.73     2.00    11.69     0  00:45        1.84
  YSB1148              JUNCTION     0.80     2.00    11.50     0  00:45        1.88
  YSB1151              JUNCTION     0.99     2.08    11.31     0  00:45        2.00
  YSB1154              JUNCTION     1.13     2.10    11.16     0  00:45        2.10
  YSB1198              JUNCTION     0.23     1.60    12.39     0  00:46        1.18
  YSB1192              JUNCTION     0.43     1.90    12.17     0  00:45        1.70
  YSB6556              JUNCTION     0.97     1.80    10.97     0  00:45        1.80
  YSB1205              JUNCTION     1.06     1.65    12.35     0  00:42        1.65
  YSB1209              JUNCTION     1.03     1.65    12.22     0  00:42        1.65
  YSB1212              JUNCTION     0.93     1.60    12.13     0  00:42        1.60
  YSB1215              JUNCTION     0.94     1.69    12.04     0  00:52        1.69
  YSB1218              JUNCTION     0.94     1.75    11.94     0  00:49        1.75
  YSB1221              JUNCTION     0.88     1.78    11.75     0  00:53        1.59
  YSB1224              JUNCTION     0.78     1.71    11.55     0  00:53        1.35
  YSB1195              JUNCTION     0.38     1.90    12.28     0  00:45        1.59
  YSB1189              JUNCTION     0.53     1.80    11.96     0  00:45        1.80
  YSB1186              JUNCTION     0.57     1.93    11.80     0  00:45        1.74
  YSB1183              JUNCTION     0.70     2.05    11.64     0  00:45        1.88
  YSB1180              JUNCTION     0.73     1.95    11.46     0  00:45        1.83
  YSB1177              JUNCTION     0.98     2.05    11.24     0  00:45        2.01
  YSB1174              JUNCTION     1.03     1.95    11.06     0  00:49        1.95
  YSB1171              JUNCTION     1.19     1.95    10.85     0  00:45        1.95
  YS02006553           JUNCTION     1.12     2.03     8.31     0  00:47        1.98
  YS02006561           JUNCTION     0.39     1.32     7.98     0  00:47        0.92
  YS02006562           JUNCTION     0.89     1.91     8.42     0  00:47        1.80
  YS02006556           JUNCTION     1.09     2.07     8.38     0  00:47        1.98
  YS02006558           JUNCTION     1.13     2.13     8.40     0  00:47        2.04
  YS6132               JUNCTION     0.55     3.40    10.72     0  00:58        1.47
  YS6137               JUNCTION     0.27     2.21    10.00     0  00:56        1.17
  YS6189               JUNCTION     0.38     2.29    10.08     0  00:56        1.36
  YS6184               JUNCTION     0.37     2.22    10.11     0  00:52        1.45
  YS6179               JUNCTION     0.31     2.60    10.58     0  00:51        1.40
  YS6176               JUNCTION     0.23     2.23    10.43     0  00:52        1.20
  YS6171               JUNCTION     0.24     2.10    10.51     0  00:51        1.12
  YS6168               JUNCTION     0.26     2.00    10.51     0  00:52        1.12
  YS6164               JUNCTION     0.08     1.90    10.63     0  00:52        0.90
  YS6162               JUNCTION     0.13     2.10    10.75     0  00:52        0.98
  YS6187               JUNCTION     0.42     2.30    10.08     0  00:56        1.42
  YS6363               JUNCTION     0.33     2.60    10.39     0  00:56        1.34
  YS6360               JUNCTION     0.44     2.90    10.70     0  00:56        1.55
  YS6354               JUNCTION     0.43     2.60    10.75     0  00:56        1.95
  YS6351               JUNCTION     0.52     2.50    10.71     0  00:54        2.25
  YS6350               JUNCTION     0.58     2.50    10.72     0  00:54        2.43
  YS6348               JUNCTION     0.53     2.45    10.85     0  00:49        2.45
  YS6344               JUNCTION     0.35     2.28    10.88     0  00:49        2.26
  YS6375               JUNCTION     0.09     0.33     8.75     0  00:51        0.33
  YS6377               JUNCTION     0.15     0.39     8.75     0  00:52        0.39
  YS6381               JUNCTION     0.17     0.45     8.58     0  00:52        0.45
  YS6386               JUNCTION     0.19     0.53     8.51     0  00:52        0.53
  YS6390               JUNCTION     0.41     0.64     8.33     0  00:52        0.64
  YS6394               JUNCTION     0.11     0.26     8.18     0  00:52        0.26
  YS6404               JUNCTION     0.51     3.00    10.23     0  00:54        1.50
  YS6401               JUNCTION     0.17     0.41     7.63     0  00:56        0.41
  YS02004319           JUNCTION     0.30     1.18    20.80     0  00:45        1.18
  YS02004320           JUNCTION     0.00     0.00    22.64     0  01:02        0.00
  YS02004321           JUNCTION     0.00     0.00    26.80     0  00:55        0.00
  YS02004307           JUNCTION     0.16     0.52    11.05     0  00:51        0.52
  YS02004309           JUNCTION     0.72     1.55    13.07     0  00:37        1.55
  YS02004312           JUNCTION     0.47     1.48    14.91     0  00:44        1.48
  YS02004314           JUNCTION     0.35     1.28    16.99     0  00:45        1.28
  YS02004316           JUNCTION     0.35     1.36    19.13     0  00:45        1.36
  YS02001783           JUNCTION     0.61     1.53     7.67     0  00:47        1.25
  YS02001784           JUNCTION     0.59     1.27     7.34     0  00:47        1.13
  YS02001786           JUNCTION     0.48     1.01     7.04     0  00:47        0.88
  YS02001788           JUNCTION     0.35     0.63     6.60     0  00:47        0.63
  YS02001790           JUNCTION     0.41     0.72     6.37     0  00:50        0.71
  YS02001791           JUNCTION     0.25     0.44     5.91     0  00:50        0.43
  YS02001793           JUNCTION     0.13     0.29     5.12     0  00:47        0.29
  YS02003309           JUNCTION     0.60     1.21     9.77     0  00:30        1.05
  YS02003306           JUNCTION     0.71     1.16     9.60     0  00:30        1.16
  YS02003269           JUNCTION     0.14     0.17     7.76     0  00:46        0.17
  YS02003272           JUNCTION     0.38     0.91     8.64     0  00:31        0.58
  YS02003278           JUNCTION     0.74     1.21     9.13     0  00:56        1.21
  YS02003281           JUNCTION     0.82     1.39     9.47     0  00:46        1.39
  YS02003284           JUNCTION     0.90     1.40     9.41     0  00:46        1.40
  YS02003287           JUNCTION     0.85     1.27     9.34     0  00:31        1.27
  YS02003290           JUNCTION     0.71     1.11     9.40     0  00:31        1.10
  YS02003294           JUNCTION     0.86     1.24     9.42     0  00:31        1.24
  YS02003275           JUNCTION     0.55     0.92     8.83     0  01:04        0.91
  YS02003297           JUNCTION     0.84     1.22     9.43     0  00:31        1.22
  YS02003300           JUNCTION     0.79     1.15     9.42     0  00:30        1.15
  YS02003303           JUNCTION     0.77     1.14     9.46     0  00:30        1.14
  YSB1227              JUNCTION     0.01     0.11    11.01     0  00:51        0.11
  CaochengRainPumpOutfall1 OUTFALL      0.00     0.00     6.00     0  00:00        0.00
  JiankangRainPumpOutfall2 OUTFALL      0.00     0.00     6.00     0  00:00        0.00
  JiankangRainPumpOutfall1 OUTFALL      0.00     0.00     6.00     0  00:00        0.00
  CaochengRainPumpOutfall2 OUTFALL      0.00     0.00     6.00     0  00:00        0.00
  YS02005684           OUTFALL      0.03     0.08     8.49     0  00:51        0.08
  YS02005681           OUTFALL      0.05     0.13     9.35     0  00:52        0.13
  YS02005678           OUTFALL      0.06     0.15     8.68     0  00:51        0.15
  YS02005675           OUTFALL      0.05     0.14     8.68     0  00:51        0.14
  YS02005672           OUTFALL      0.04     0.10     8.43     0  00:51        0.10
[...]
  WS02003084WS02003083        1.69      1.71      1.69      1.88         1.69
  WS02003083WS02003082        1.68      1.68      1.71      1.79         0.01
  WS02003082WS02003081        1.67      1.68      1.67      1.78         1.67
  WS02003081WS02003080        1.67      1.67      1.67      1.68         1.67
  WS02003080WS02003077        0.59      0.59      1.67      1.68         0.01
  WS02003073WS02003076        0.69      0.69      1.44      0.25         0.01
  HS02004901HS02004770        0.70      0.70      0.70      0.02         0.01
  HS02004876HS02004881        0.70      0.72      0.70      1.61         0.70
  HS02004870HS02004876        0.64      0.64      0.72      0.01         0.01
  HS02004049HS02004052        0.16      0.16      0.18      0.01         0.01
  HS02004048HS02004049        0.26      0.37      0.26      0.44         0.26
  HS02004046HS02004048        0.18      0.18      0.37      0.01         0.01
  HS02004043HS02004046        0.15      0.15      0.20      0.05         0.05
  HS02004041HS02004043        0.03      0.03      0.14      0.01         0.01
  HS02004038HS02004041        0.01      0.01      0.02      0.01         0.01
  HS02004028HS02004027        0.01      0.14      0.01      0.15         0.01
  HS02003143HS02003065        0.54      0.54      0.74      0.01         0.01
  HS02004842HS02004848        0.56      0.56      0.77      0.01         0.01
  HS02004837HS02004842        0.59      0.59      0.77      0.01         0.01
  HS02004830HS02004837        0.59      0.59      0.65      0.01         0.01
  HS02004824HS02004830        0.65      0.65      0.69      0.01         0.01
  HS02004817HS02004824        0.69      0.69      1.54      0.01         0.01
  HS02004770HS02004777        0.70      0.70      0.71      0.01         0.01
  HS02004799HS02004480        0.87      0.87      0.95      0.97         0.01
  HS02004792HS02004799        0.81      0.81      0.95      0.01         0.01
  HS02004788HS02004792        0.65      0.65      0.81      0.01         0.01
  HS02004785HS02004788        0.65      0.66      0.65      1.49         0.54
  HS02004777HS02004785        0.66      0.66      0.71      0.01         0.01
  HS02004480HS02004478        0.80      0.87      0.80      1.69         0.80
  HS02004479HS02004480        0.88      0.88      0.91      0.01         0.01
  HS02003013HS02003010        0.34      0.34      0.38      0.22         0.22
  HS02003010HS02003007        0.32      0.33      0.34      0.37         0.32
  HS02003007HS02003004        0.34      0.34      0.43      0.19         0.18
  HS02003004HS02003001        0.01      0.43      0.01      1.00         0.01
  HS02003065HS02003056        0.73      0.73      0.88      0.01         0.01
  HS02003042HS02003053        0.29      0.29      0.68      0.01         0.01
  HS02003028HS02003021        0.22      0.22      0.28      0.01         0.01
  HS02003021HS02003018        0.31      0.31      0.32      0.10         0.10
  HS02003018HS02003017        0.33      0.33      0.33      0.07         0.06
  HS02003017HS02003013        0.33      0.33      0.34      0.27         0.25
  HS02004862HS02004870        0.61      0.61      0.64      0.22         0.21
  HS02004848HS02004852        0.55      0.56      0.59      0.03         0.01
  HS02004856HS02004862        0.56      0.56      0.61      0.01         0.01
  HS02004852HS02004856        0.58      0.59      0.61      0.02         0.01
  HS02004024HS02004022        0.01      0.01      0.18      0.01         0.01
  HS02004022HS02004021        0.18      0.18      0.27      0.01         0.01
  HS02004021HS02004019        0.27      0.27      0.36      0.21         0.21
  HS02004019HS02003162        0.01      0.36      0.01      0.39         0.01
  HS02004052HS02004053        0.18      0.18      0.18      0.20         0.18
  HS02003122HS02003125        1.47      1.48      1.48      0.16         0.19
  HS02003119HS02003122        1.46      1.46      1.48      0.01         0.01
  HS02003116HS02003119        1.14      1.14      1.46      0.01         0.01
  HS02003111HS02003116        0.01      0.01      1.21      0.01         0.01
  HS02004018HS02004019        0.21      0.21      0.36      0.01         0.01
  HS02003056HS02003136        0.75      0.75      1.50      0.01         0.01
  HS02004017HS02004018        0.19      0.19      0.21      0.01         0.01
  HS02004013HS02004017        0.01      0.01      0.19      0.04         0.01
  HS02004802HS02004478        0.81      0.81      0.88      0.18         0.01
  HS02004478WS02006287        0.67      0.67      0.87      0.01         0.01
  HS02003079HS02003084        0.01      0.01      0.02      0.01         0.01
  HS02003148HS02003145        0.01      0.01      0.13      0.01         0.01
  HS02003145HS02003143        0.13      0.13      0.51      0.12         0.11
  HS02003136WS02003203        1.51      1.51      1.63      0.01         0.01
  HS02003084HS02003088        0.02      0.02      0.05      0.01         0.01
  HS02003108HS02003111        0.15      0.15      0.38      0.01         0.01
  HS02003100HS02003108        0.08      0.08      0.15      0.01         0.01
  HS02003088HS02003100        0.06      0.06      0.08      0.01         0.01
  HS02004817HS02004807        0.85      0.85      1.54      0.01         0.01
  HS02004807HS02004802        0.85      0.85      0.87      0.33         0.33
  HS02003053HS02003056        0.68      0.68      0.88      0.01         0.01
  HS02003039HS02003042        0.35      0.36      0.39      0.21         0.02
  HS02003036HS02003039        0.17      0.17      0.22      0.01         0.01
  YS02001759YS02001757        0.11      0.12      0.11      0.16         0.11
  YS02001762YS02001759        0.12      0.12      0.12      0.15         0.11
  YS02001765YS02001762        0.11      0.11      0.12      0.08         0.06
  YS02001770YS02001767        0.11      0.13      0.11      0.62         0.11
  YS02001774YS02001770        0.12      0.12      0.15      0.01         0.01
  YS02001779YS02001774        0.10      0.10      0.15      0.01         0.01
  YS02001767YS02001765        0.11      0.11      0.11      0.18         0.11
  YS02006561YS02001783        0.43      0.43      0.62      0.01         0.01
  YS02001783YS02001784        0.59      0.62      0.59      0.78         0.59
  YS02001784YS02001785        0.48      0.59      0.48      1.08         0.48
  YS02001790YS02001791        0.01      0.01      0.01      0.58         0.01
  YS02001910YS02001907        0.65      0.65      0.85      0.02         0.02
  YS02001786YS02001788        0.01      0.48      0.01      0.90         0.01
  YS02001915YS02001910        0.56      0.56      0.65      0.01         0.01
  YS02001918YS02001915        0.47      0.47      0.56      0.01         0.01
  YS02001923YS02001920        0.41      0.41      0.49      0.01         0.01
  YS02001926YS02001923        0.17      0.17      0.19      0.01         0.01
  YS02001929YS02001926        0.05      0.05      0.19      0.01         0.01
  YS02001932YS02001929        0.01      0.01      0.05      0.01         0.01
  YS02001935YS02001932        0.01      0.01      0.01      0.01         0.01
  YS02001920YS02001918        0.47      0.47      0.49      0.01         0.01
  YS02003290YS02003287        1.41      1.41      1.62      0.01         0.01
  YS02003294YS02003290        1.43      1.43      1.67      0.02         0.01
  YS02003297YS02003294        1.65      1.65      1.66      0.40         0.32
  YS02003275YS02003272        1.17      1.30      1.17      1.59         1.17
  YS02003300YS02003297        1.50      1.50      1.62      0.01         0.01
  YS02003303YS02003300        1.39      1.39      1.58      0.01         0.01
  YS02005550YS02005551        0.01      0.01      0.01      0.04         0.01
  YS02005568YS02005569        0.01      0.01      0.01      0.15         0.01
  YS02005582YS02005583        0.25      0.46      0.25      0.65         0.25
  YS02003272YS02003269        0.01      1.24      0.01      1.59         0.01
  YS02003278YS02003275        1.35      1.63      1.35      1.74         1.35
  YS02003281YS02003278        1.58      1.58      1.63      1.34         1.34
  YS02003284YS02003281        1.58      1.58      1.63      0.97         0.31
  YS02003287YS02003284        1.61      1.61      1.65      0.01         0.04
  YS02003306YS02003303        1.34      1.34      1.50      0.44         0.44
  YS02003309YS02003306        1.22      1.22      1.34      0.01         0.01
  YS02005600YS02005375        0.17      0.17      0.18      0.18         0.17
  YS02005384YS02005593        0.01      1.18      0.01      1.23         0.01
  YS02005595YS02005596        0.27      0.28      0.27      0.30         0.27
  YS02005612YS02005613        0.10      0.10      0.95      0.29         0.01
  YS02005553YS02005554        0.01      0.01      0.01      0.15         0.01
  YS02005556YS02005557        0.01      0.01      0.01      0.18         0.01
  YS02005562YS02005563        0.01      0.01      0.01      0.11         0.01
  YS02005571YS02005572        0.01      0.29      0.01      0.45         0.01
  YS02005572YS02005574        0.01      0.01      0.01      0.09         0.01
  YS02005579YS02005580        0.17      0.34      0.17      0.50         0.17
  YS02005580YS02005581        0.15      0.17      0.15      0.19         0.15
  YS02005583YS02005584        0.25      0.25      0.26      0.26         0.25
  YS02006553YS02006556        0.75      0.75      0.88      0.01         0.01
  YS02006556YS02006558        0.81      0.81      0.90      0.01         0.01
  YSB6556YSB1171              0.99      0.99      1.62      0.01         0.01
  YSB1202YSB1205              1.30      1.30      1.36      0.01         0.01
  YSB1205YSB1209              1.35      1.36      1.35      0.96         0.91
  YSB1209YSB1212              1.33      1.35      1.33      1.45         1.33
  YSB1212YSB1215              1.33      1.33      1.33      0.66         0.65
  YSB1215YSB1218              1.33      1.33      1.33      0.74         0.73
  YSB1218YSB1221              1.30      1.30      1.33      1.07         1.07
  YSB1221YSB1224              1.33      1.33      1.34      1.30         1.30
  YSB1224YSB1105              0.85      1.37      0.85      1.45         0.85
  YSB1189YSB1186              0.60      0.60      0.70      0.21         0.21
  YS02001907YS02006553        1.09      1.09      1.18      0.01         0.01
  YS02006562YS02006558        0.62      0.62      0.90      0.01         0.01
  YS02006558YS02006561        0.51      0.74      0.51      1.02         0.51
  YS6184YS6187                0.13      0.13      0.14      0.06         0.07
  YS6360YS6363                0.10      0.15      0.10      0.70         0.10
  YS6354YS6360                0.20      0.21      0.20      0.20         0.19
  YS6351YS6354                0.21      0.23      0.21      0.41         0.21
  YS6350YS6351                0.23      0.25      0.23      0.72         0.23
  YS6348YS6350                0.24      0.24      0.25      0.22         0.21
  YS6344YS6348                0.24      0.24      0.30      0.01         0.01
  YS6363YS6132                0.10      0.10      0.24      0.01         0.01
  YS6137YS6132                0.17      0.17      0.35      0.01         0.01
  YS6189YS6137                0.17      0.17      0.19      1.36         0.01
  YS6187YS6189                0.12      0.12      0.14      0.26         0.01
  YS6179YS6184                0.11      0.11      0.13      0.01         0.01
  YS6176YS6179                0.05      0.05      0.11      0.01         0.01
  YS6171YS6176                0.07      0.07      0.10      0.01         0.01
  YS6168YS6171                0.06      0.06      0.07      0.03         0.04
  YS6164YS6168                0.03      0.03      0.06      0.01         0.01
  YS6162YS6164                0.06      0.06      0.07      0.01         0.01
  YS6132YS6404                0.01      0.15      0.01      0.29         0.01
  YSB1106YSB1105              0.07      0.20      0.07      0.24         0.07
  YSB1109YSB1106              0.20      0.26      0.20      0.40         0.20
  YSB1112YSB1109              0.26      0.26      0.26      0.29         0.26
  YSB1115YSB1112              0.24      0.24      0.26      0.07         0.07
  YSB1118YSB1115              0.26      0.27      0.27      0.28         0.26
  YSB1121YSB1118              0.27      0.29      0.27      0.39         0.27
  YSB1124YSB1121              0.26      0.26      0.29      0.01         0.01
  YSB1105YSB1103              0.13      0.13      0.18      0.18         0.13
  YS02001748YS02001751        0.01      0.01      0.01      0.01         0.01
  YS02001751YS02001754        0.01      0.01      0.03      0.01         0.01
  YS02001754YS02001757        0.05      0.05      0.11      0.01         0.01
  YS02001882YS02001884        0.56      0.56      0.57      0.01         0.01
  YS02001884YS02001887        0.59      0.59      0.60      0.01         0.01
  YS02001890YS02001895        0.55      0.55      0.65      0.01         0.01
  YS02001895YS02001898        0.55      0.55      0.55      0.01         0.01
  YS02001898YS02001901        0.55      0.55      0.59      0.01         0.01
  YS02001901YS02001904        0.58      0.58      0.59      0.01         0.01
  YS02001904YS02001907        0.58      0.58      0.88      0.01         0.01
  YS02001887YS02001890        0.62      0.62      0.63      0.15         0.01
  YS02004309YS02004307        0.15      0.85      0.15      0.84         0.15
  YS02004319YS02004316        0.32      0.32      0.33      0.01         0.01
  YS02005376YS02005378        1.52      1.52      1.83      0.01         0.01
  YS02005378YS02005381        1.80      1.80      1.83      0.27         0.01
  YS02005381YS02005384        1.18      1.18      1.80      1.82         0.01
  YS02005598YS02005374        0.20      0.20      0.21      0.21         0.20
  YS02005602YS02005603        0.15      0.43      0.15      0.55         0.15
  YS02005603YS02005607        0.15      0.15      0.17      0.17         0.15
  YS02005618YS02005619        0.01      0.01      0.01      0.02         0.01
  YS02005621YS02005622        0.01      0.01      0.01      0.07         0.01
  YS02005624YS02005625        0.01      0.01      0.26      0.04         0.01
  YS02005630YS02005631        0.01      0.04      0.01      0.09         0.01
  YS02005633YS02005634        0.01      0.03      0.01      0.06         0.01
  YS02005636YS02005637        0.01      0.09      0.01      0.13         0.01
  YS02005639YS02005640        0.01      0.06      0.01      0.09         0.01
  YS02005627YS02005628        0.01      0.04      0.01      0.25         0.01
  YS02005644YS02005645        0.01      0.15      0.01      0.18         0.01
  YS02005650YS02005651        0.01      0.11      0.01      0.20         0.01
  YS02005653YS02005654        0.10      0.10      0.10      0.10         0.09
  YS02005654YS02005655        0.01      0.10      0.01      0.19         0.01
  YS02005658YS02005659        0.01      0.06      0.01      0.09         0.01
  YS02005661YS02005662        0.01      0.10      0.01      0.21         0.01
  YS02005664YS02005665        0.01      0.12      0.01      0.49         0.01
  YS02005667YS02005668        0.01      0.01      0.47      0.11         0.01
  YS02005647YS02005648        0.01      0.25      0.01      0.39         0.01
  YS02004312YS02004309        0.55      0.55      0.85      0.01         0.01
  YS02004314YS02004312        0.36      0.36      0.55      0.01         0.01
  YS02004316YS02004314        0.33      0.33      0.36      0.28         0.28
  YS02004320YS02004319        0.01      0.01      0.24      0.01         0.01
  YS6404YS6401                0.01      0.01      0.01      0.67         0.01
  YSB1132YSB1135              0.57      0.57      0.62      0.01         0.01
  YSB1135YSB1138              0.62      0.62      0.65      0.01         0.01
  YSB1138YSB1141              0.65      0.65      0.75      0.37         0.37
  YSB1141YSB1145              0.73      0.73      0.75      0.35         0.33
  YSB1148YSB1151              0.84      0.84      1.10      0.01         0.01
  YSB1151YSB1154              0.95      0.95      1.27      0.01         0.01
  YSB1154YSB6556              0.99      0.99      1.27      0.38         0.01
  YSB1128YSB1132              0.55      0.55      0.57      0.01         0.01
  YSB1145YSB1148              0.75      0.75      0.84      0.01         0.01
  YSB1198YSB1195              0.32      0.32      0.54      0.01         0.01
  YSB1195YSB1192              0.54      0.54      0.56      0.01         0.01
  YSB1192YSB1189              0.56      0.56      0.60      0.01         0.01
  YSB1186YSB1183              0.65      0.65      0.76      0.01         0.01
  YSB1183YSB1180              0.76      0.76      0.81      0.25         0.26
  YSB1180YSB1177              0.81      0.81      1.16      0.01         0.01
  YSB1177YSB1174              1.16      1.16      1.42      0.26         0.27
  YSB1174YSB1171              1.10      1.10      1.57      0.16         0.17
  YSB1171HS02004479           0.84      0.84      1.25      0.01         0.01
  YS02004307HS02004052        0.01      0.01      0.18      0.01         0.01
  HS02004881HS02006253        0.70      0.70      1.54      0.01         0.01
  WS0200404049WS6136          0.17      0.17      0.25      0.01         0.01
  HS02003125WS02003215        1.48      1.48      1.51      0.01         0.01
  YS02001793JiankangQianchi        0.01      0.01      2.02      0.01         0.01
  YS02001757CaochengTiaoxuchi        0.11      0.11      0.75      0.08         0.07
  WS02004041WS6409            1.07      1.07      1.16      1.15         1.07
  WSF200WS02003060            0.26      0.26      0.51      0.01         0.01
  HS02004053WS02004407        0.18      0.18      1.10      0.01         0.01
  HS02003036HS02003028        0.17      0.17      0.27      0.01         0.01
  
  
  ***************
  Pumping Summary
  ***************
  
  ---------------------------------------------------------------------------------------------------------
                                                  Min       Avg       Max     Total     Power    % Time Off
                        Percent   Number of      Flow      Flow      Flow    Volume     Usage    Pump Curve
  Pump                 Utilized   Start-Ups       LPS       LPS       LPS  10^6 ltr     Kw-hr    Low   High
  ---------------------------------------------------------------------------------------------------------
  CaochengSewagePump1     91.65           1      0.00    200.00    200.00     1.343     10.16    0.0    0.0
  CaochengSewagePump2     57.49           1      0.00    200.00    200.00     0.842      6.64    0.0    0.0
  CaochengRainPump1       54.16           1      0.00    683.00    683.00     2.709      4.08    0.0   38.4
  CaochengRainPump2        0.00           0      0.00      0.00      0.00     0.000      0.00    0.0    0.0
  JiankangSewagePump      73.04           1      0.00    300.00    300.00     1.605     24.09    0.0    0.0
  JiankangRainPump1       32.79           4      0.00   1000.00   1000.00     2.401     15.66    0.0    0.0
  JiankangRainPump2        0.00           0      0.00      0.00      0.00     0.000      0.00    0.0    0.0
  XierchiSewagePump1      91.78           1      0.00     95.00     95.00     0.639      3.95    0.0    0.0
  XierchiSewagePump2      76.23           1      0.00     95.00     95.00     0.530      3.11    0.0    0.0
  XierchiSewagePump3       0.00           0      0.00      0.00      0.00     0.000      0.00    0.0    0.0
  XierchiSewagePump4       0.00           0      0.00      0.00      0.00     0.000      0.00    0.0    0.0
  

  Analysis begun on:  Sat Nov 19 23:49:50 2022
  Analysis ended on:  Sun Nov 20 00:20:20 2022
  Total elapsed time: 00:30:30