
  EPA STORM WATER MANAGEMENT MODEL - VERSION 5.1 (Build 5.3.0.dev0)
  --------------------------------------------------------------

  WARNING 04: minimum elevation drop used for Conduit WS02004404WS02004405
  WARNING 03: negative offset ignored for Link YS02001904YS02001907
  
  *********************************************************
  NOTE: The summary statistics displayed in this report are
  based on results found at every computational time step,  
  not just on results from each reporting time step.
  *********************************************************
  
  ****************
  Analysis Options
  ****************
  Flow Units ............... LPS
  Process Models:
    Rainfall/Runoff ........ YES
    RDII ................... NO
    Snowmelt ............... NO
    Groundwater ............ NO
    Flow Routing ........... YES
    Ponding Allowed ........ NO
    Water Quality .......... NO
  Infiltration Method ...... HORTON
  Flow Routing Method ...... DYNWAVE
  Surcharge Method ......... EXTRAN
  Starting Date ............ 03/31/2017 00:00:00
  Ending Date .............. 03/31/2017 03:00:00
  Antecedent Dry Days ...... 8.0
  Report Time Step ......... 00:00:30
  Wet Time Step ............ 00:01:00
  Dry Time Step ............ 00:01:00
  Routing Time Step ........ 30.00 sec
  Variable Time Step ....... YES
  Maximum Trials ........... 8
  Number of Threads ........ 6
  Head Tolerance ........... 0.001500 m
  
  
  **************************        Volume         Depth
  Runoff Quantity Continuity     hectare-m            mm
  **************************     ---------       -------
  Total Precipitation ......         8.786        74.557
  Evaporation Loss .........         0.000         0.000
  Infiltration Loss ........         0.687         5.833
  Surface Runoff ...........         6.519        55.322
  LID Drainage .............         0.599         5.082
  Final Storage ............         0.998         8.473
  Continuity Error (%) .....        -0.206
  
  
  **************************        Volume        Volume
  Flow Routing Continuity        hectare-m      10^6 ltr
  **************************     ---------     ---------
  Dry Weather Inflow .......         0.171         1.713
  Wet Weather Inflow .......         7.100        70.998
  Groundwater Inflow .......         0.000         0.000
  RDII Inflow ..............         0.000         0.000
  External Inflow ..........         0.032         0.321
  External Outflow .........         4.155        41.548
  Flooding Loss ............         2.940        29.401
  Evaporation Loss .........         0.000         0.000
  Exfiltration Loss ........         0.000         0.000
  Initial Stored Volume ....         0.303         3.031
  Final Stored Volume ......         0.543         5.426
  Continuity Error (%) .....        -0.410
  
  
  *************************
  Highest Continuity Errors
  *************************
  Node WS02005193 (57.47%)
  Node YS02001884 (26.85%)
  Node YS02001774 (12.98%)
  Node YS02004320 (9.51%)
  Node HS02003116 (6.62%)
  
  
  ***************************
  Time-Step Critical Elements
  ***************************
  Link YS02005655YS02005657 (36.76%)
  Link WS02006252WS02006251 (25.51%)
  Link WS02004041WS6409 (20.30%)
  Link WS02006280WS02006229 (2.01%)
  Link WS02003073WS02003076 (1.84%)
  
  
  ********************************
  Highest Flow Instability Indexes
  ********************************
  Link WS02006238WS02006235 (68)
  Link YS02005562YS02005563 (61)
  Link WS02003215WS02003116 (59)
  Link WS02003200WS02003201 (59)
  Link WS02004404WS02004405 (59)
  
  
  *************************
  Routing Time Step Summary
  *************************
  Minimum Time Step           :     0.50 sec
  Average Time Step           :     0.97 sec
  Maximum Time Step           :    30.00 sec
  Percent in Steady State     :     0.00
  Average Iterations per Step :     6.05
  Percent Not Converging      :    33.80
  
  
  ***************************
  Subcatchment Runoff Summary
  ***************************
  
  ------------------------------------------------------------------------------------------------------------------------------
                            Total      Total      Total      Total     Imperv       Perv      Total       Total     Peak  Runoff
                           Precip      Runon       Evap      Infil     Runoff     Runoff     Runoff      Runoff   Runoff   Coeff
  Subcatchment                 mm         mm         mm         mm         mm         mm         mm    10^6 ltr      LPS
  ------------------------------------------------------------------------------------------------------------------------------
  sub0                      74.56       0.00       0.00      10.47      34.22       2.13      51.14        0.04    26.52   0.686
  sub1                      74.56       0.00       0.00       5.79      48.11       4.90      60.21        0.40   247.06   0.808
  sub2                      74.56       0.00       0.00       6.34      37.72      15.75      57.97        0.54   275.53   0.777
  sub3                      74.56       0.00       0.00       5.32      39.81      15.37      57.84        1.30   617.60   0.776
  sub4                      74.56       0.00       0.00       2.99      54.94       5.52      63.33        1.32   677.36   0.849
  sub5                      74.56       0.00       0.00       7.69      42.97       2.69      56.23        0.64   381.28   0.754
  sub6                      74.56       0.00       0.00       5.31      50.40       3.16      60.51        1.56   919.46   0.812
  sub7                      74.56       0.00       0.00       4.41      53.69       4.39      63.41        0.21   146.46   0.851
  sub8                      74.56       0.00       0.00       2.77      58.86       4.82      66.49        0.42   286.22   0.892
  sub9                      74.56       0.00       0.00       3.37      56.85       4.65      65.24        0.31   208.59   0.875
  sub10                     74.56       0.00       0.00       6.17      47.81       3.45      59.40        0.66   408.00   0.797
  sub11                     74.56       0.00       0.00       5.90      48.96       3.53      60.22        0.70   459.31   0.808
  sub12                     74.56       0.00       0.00       7.91      41.34       5.09      56.70        0.50   333.81   0.760
  sub13                     74.56       0.00       0.00       4.10      45.50      17.91      64.42        0.77   465.77   0.864
  sub14                     74.56       0.00       0.00       4.22      54.05       4.43      63.51        0.60   396.07   0.852
  sub15                     74.56       0.00       0.00       7.15      38.37      12.82      58.15        1.00   584.97   0.780
  sub16                     74.56       0.00       0.00       6.68      39.05      15.23      60.00        0.63   405.33   0.805
  sub17                     74.56       0.00       0.00       7.32      37.55      14.01      58.54        0.50   317.63   0.785
  sub18                     74.56       0.00       0.00       4.86      52.33       4.28      62.63        0.50   347.01   0.840
  sub19                     74.56       0.00       0.00       8.64      34.07      12.18      55.66        0.18   108.41   0.747
  sub20                     74.56       0.00       0.00      14.92      18.75       1.53      41.73        0.29   139.28   0.560
  sub21                     74.56       0.00       0.00       5.03      50.92       5.72      62.53        0.32   222.94   0.839
  sub22                     74.56       0.00       0.00       5.48      38.17      21.28      61.35        3.88  2203.23   0.823
  sub23                     74.56       0.00       0.00       5.93      39.46      17.80      61.03        2.91  1747.49   0.819
  sub24                     74.56       0.00       0.00       5.16      49.81       6.66      62.31        2.23  1550.06   0.836
  sub25                     74.56       0.00       0.00       0.73      67.31       4.20      71.51        0.93   730.20   0.959
  sub26                     74.56       0.00       0.00       7.54      39.75      10.27      58.43        0.83   612.39   0.784
  sub27                     74.56       0.00       0.00       4.99      51.49       4.22      61.92        0.90   575.74   0.830
  sub28                     74.56       0.00       0.00       4.59      53.05       3.83      62.61        0.98   629.79   0.840
  sub29                     74.56       0.00       0.00       5.71      48.73       3.52      59.68        0.96   554.95   0.801
  sub30                     74.56       0.00       0.00       5.19      51.70       3.72      62.07        1.40   993.13   0.833
  sub31                     74.56       0.00       0.00       7.06      43.11       7.24      58.82        1.25   875.62   0.789
  sub32                     74.56       0.00       0.00       6.74      46.28       3.34      58.63        1.17   773.31   0.786
  sub33                     74.56       0.00       0.00       5.53      49.12       6.04      61.71        1.13   805.66   0.828
  sub34                     74.56       0.00       0.00       7.93      29.77      23.32      58.45        1.30   827.52   0.784
  sub35                     74.56       0.00       0.00      17.80       9.12       0.66      35.66        0.12    45.41   0.478
  sub36                     74.56       0.00       0.00       2.28      56.49      12.99      69.48        0.60   473.67   0.932
  sub37                     74.56       0.00       0.00       6.20      38.51      19.80      62.24        0.47   346.46   0.835
  sub38                     74.56       0.00       0.00       7.18      37.34      16.32      59.97        1.14   848.98   0.804
  sub39                     74.56       0.00       0.00       4.52      54.26       3.91      63.80        0.68   522.93   0.856
  sub40                     74.56       0.00       0.00       4.20      55.36       3.98      64.49        0.75   585.66   0.865
  sub41                     74.56       0.00       0.00       5.57      48.23       7.55      62.00        1.19   876.39   0.832
  sub42                     74.56       0.00       0.00       4.82      52.92       4.33      63.21        0.64   483.17   0.848
  sub43                     74.56       0.00       0.00       5.97      39.25      18.95      61.88        0.50   332.27   0.830
  sub44                     74.56       0.00       0.00       5.97      48.86       3.06      59.87        0.68   430.78   0.803
  sub45                     74.56       0.00       0.00       6.87      43.32       7.23      58.73        1.08   694.80   0.788
  sub46                     74.56       0.00       0.00       7.34      25.31      32.52      59.54        0.42   237.19   0.799
  sub47                     74.56       0.00       0.00       5.97      48.88       3.52      60.24        0.46   310.60   0.808
  sub48                     74.56       0.00       0.00       3.49      56.72       4.64      65.28        0.50   345.98   0.876
  sub49                     74.56       0.00       0.00       5.99      48.59       3.50      59.97        0.55   354.95   0.804
  sub50                     74.56       0.00       0.00       4.75      52.71       3.80      62.49        0.44   290.35   0.838
  sub51                     74.56       0.00       0.00       3.33      57.75       4.16      65.72        0.31   221.19   0.881
  sub52                     74.56       0.00       0.00       8.00      42.14       2.64      55.82        0.61   375.49   0.749
  sub53                     74.56       0.00       0.00       6.66      46.57       3.36      58.81        0.59   394.45   0.789
  sub54                     74.56       0.00       0.00       6.02      48.46       3.04      59.52        0.36   216.91   0.798
  sub55                     74.56       0.00       0.00       4.77      52.43       3.78      62.22        0.50   316.16   0.835
  sub56                     74.56       0.00       0.00       5.10      47.38       8.81      61.25        0.87   496.21   0.822
  sub57                     74.56       0.00       0.00       3.22      48.87      16.61      65.48        0.42   249.95   0.878
  sub58                     74.56       0.00       0.00       8.62      17.90      31.40      51.73        1.91   797.78   0.694
  sub59                     74.56       0.00       0.00       9.08      15.10      28.75      46.47        1.06   391.19   0.623
  sub60                     74.56       0.00       0.00       4.17      53.47       6.00      64.03        0.84   572.96   0.859
  sub61                     74.56       0.00       0.00       5.84      46.65       7.79      60.97        1.12   751.52   0.818
  sub62                     74.56       0.00       0.00       5.13      51.14       3.69      61.38        1.68  1049.66   0.823
  sub67                     74.56       0.00       0.00       8.22      41.10       2.96      55.34        1.03   624.15   0.742
  sub68                     74.56       0.00       0.00       5.60      48.08       6.40      61.02        1.68  1078.93   0.818
  sub71                     74.56       0.00       0.00       3.83      54.79       3.96      63.33        1.66   982.39   0.849
  sub72                     74.56       0.00       0.00       6.47      46.12       2.90      57.73        0.79   427.82   0.774
  sub73                     74.56       0.00       0.00       9.64      34.00       7.41      53.63        0.05    35.70   0.719
  sub74                     74.56       0.00       0.00       7.58      37.09      14.11      58.63        0.09    66.06   0.786
  sub75                     74.56       0.00       0.00       6.25      41.63      14.47      61.52        0.14    99.84   0.825
  sub76                     74.56       0.00       0.00       4.92      49.64       8.92      63.47        0.15   114.73   0.851
  sub77                     74.56       0.00       0.00       6.47      45.09       7.58      60.20        0.10    69.97   0.807
  sub78                     74.56       0.00       0.00       8.30      40.06       4.93      55.87        0.15   102.27   0.749
  sub79                     74.56       0.00       0.00       6.67      42.09      10.76      59.81        0.15   105.04   0.802
  sub80                     74.56       0.00       0.00       5.75      41.89      16.57      62.55        0.18   130.72   0.839
  sub81                     74.56       0.00       0.00       6.01      39.58      18.42      61.91        0.19   127.96   0.830
  sub82                     74.56       0.00       0.00       6.05      39.54      18.51      62.03        0.19   129.51   0.832
  sub83                     74.56       0.00       0.00       6.89      36.96      18.14      60.43        0.20   142.05   0.811
  sub84                     74.56       0.00       0.00       6.11      39.98      17.04      61.43        0.33   220.58   0.824
  sub85                     74.56       0.00       0.00      10.59      30.23       7.76      51.47        0.23   140.37   0.690
  sub86                     74.56       0.00       0.00       6.38      42.33      11.99      60.53        0.29   199.44   0.812
  sub87                     74.56       0.00       0.00       3.63      46.95      20.09      67.03        0.20   143.68   0.899
  sub88                     74.56       0.00       0.00       5.75      41.51      17.12      62.56        0.19   134.68   0.839
  sub89                     74.56       0.00       0.00       5.81      42.54      15.47      62.51        0.17   122.43   0.838
  sub90                     74.56       0.00       0.00       5.67      44.29      13.28      62.44        0.15   112.09   0.838
  sub91                     74.56       0.00       0.00       6.71      41.37      12.49      60.47        0.11    82.59   0.811
  sub92                     74.56       0.00       0.00       7.82      36.89      13.54      58.41        0.09    67.00   0.783
  sub93                     74.56       0.00       0.00       5.12      44.72      16.39      64.42        0.12    94.89   0.864
  sub94                     74.56       0.00       0.00       6.40      40.93      14.95      61.40        0.13   100.37   0.824
  sub95                     74.56       0.00       0.00       3.01      51.60      17.15      68.75        0.10    83.88   0.922
  sub96                     74.56       0.00       0.00       2.28      56.85      13.16      70.01        0.13   112.85   0.939
  sub97                     74.56       0.00       0.00       6.33      28.50      36.07      64.58        0.15   123.71   0.866
  sub98                     74.56       0.00       0.00       7.48      20.41      40.60      61.02        0.20   120.74   0.818
  sub99                     74.56       0.00       0.00       8.20      15.28      41.73      57.02        0.20    95.15   0.765
  sub100                    74.56       0.00       0.00       8.20      15.25      39.39      54.64        0.19    81.59   0.733
  sub101                    74.56       0.00       0.00       8.20      15.24      39.14      54.39        0.18    77.53   0.729
  sub102                    74.56       0.00       0.00       7.89      17.36      35.94      53.30        0.16    66.78   0.715
  sub103                    74.56       0.00       0.00       8.10      15.91      35.86      51.78        0.25    97.74   0.694
  sub104                    74.56       0.00       0.00       8.10      15.90      35.37      51.28        0.27   105.72   0.688
  sub105                    74.56       0.00       0.00       8.41      13.76      36.67      50.43        0.29   108.09   0.676
  sub106                    74.56       0.00       0.00       8.20      15.22      37.73      52.95        0.27   109.65   0.710
  sub107                    74.56       0.00       0.00       8.41      13.81      40.40      54.21        0.38   159.82   0.727
  sub108                    74.56       0.00       0.00       8.51      13.12      43.63      56.74        0.53   249.09   0.761
  sub109                    74.56       0.00       0.00       6.64      26.13      35.03      61.15        0.87   503.54   0.820
  sub110                    74.56       0.00       0.00       1.87      58.97      10.54      69.51        1.46  1073.71   0.932
  sub111                    74.56       0.00       0.00       2.70      53.31      15.06      68.37        0.59   425.72   0.917
  sub112                    74.56       0.00       0.00       2.18      56.92      12.28      69.20        0.55   406.49   0.928
  sub113                    74.56       0.00       0.00       1.45      61.93       8.28      70.20        0.49   365.28   0.942
  sub114                    74.56       0.00       0.00       1.35      62.66       7.70      70.36        0.47   352.28   0.944
  sub115                    74.56       0.00       0.00       1.25      63.33       7.11      70.44        0.52   389.09   0.945
  sub116                    74.56       0.00       0.00       4.15      43.19      22.31      65.50        0.12    79.32   0.879
  sub117                    74.56       0.00       0.00       4.26      42.58      23.12      65.70        0.30   202.61   0.881
  

  ***********************
  LID Performance Summary
  ***********************

  --------------------------------------------------------------------------------------------------------------------
                                         Total      Evap     Infil   Surface    Drain    Initial     Final  Continuity
                                        Inflow      Loss      Loss   Outflow   Outflow   Storage   Storage       Error
  Subcatchment      LID Control             mm        mm        mm        mm        mm        mm        mm           %
  --------------------------------------------------------------------------------------------------------------------
  sub0              PermeablePavement     74.56      0.00     20.46      0.00     29.94      0.00     24.63       -0.65
  sub1              PermeablePavement     74.56      0.00     20.46      0.00     29.94      0.00     24.63       -0.65
  sub2              PermeablePavement     74.56      0.00     20.46      0.00     29.94      0.00     24.63       -0.65
  sub3              PermeablePavement     74.56      0.00     20.46      0.00     29.94      0.00     24.63       -0.65
  sub4              PermeablePavement     74.56      0.00     20.46      0.00     29.94      0.00     24.63       -0.65
  sub5              PermeablePavement     74.56      0.00     20.46      0.00     29.94      0.00     24.63       -0.65
  sub6              PermeablePavement     74.56      0.00     20.46      0.00     29.94      0.00     24.63       -0.65
  sub7              PermeablePavement     74.56      0.00     20.46      0.00     29.94      0.00     24.63       -0.65
  sub8              PermeablePavement     74.56      0.00     20.46      0.00     29.94      0.00     24.63       -0.65
  sub9              PermeablePavement     74.56      0.00     20.46      0.00     29.94      0.00     24.63       -0.65
  sub10             PermeablePavement     74.56      0.00     20.46      0.00     29.94      0.00     24.63       -0.65
  sub11             PermeablePavement     74.56      0.00     20.46      0.00     29.94      0.00     24.63       -0.65
  sub12             PermeablePavement     74.56      0.00     20.46      0.00     29.94      0.00     24.63       -0.65
  sub13             PermeablePavement     74.56      0.00     20.46      0.00     29.94      0.00     24.63       -0.65
  sub14             PermeablePavement     74.56      0.00     20.46      0.00     29.94      0.00     24.63       -0.65
  sub15             PermeablePavement     74.56      0.00     20.46      0.00     29.94      0.00     24.63       -0.65
  sub16             PermeablePavement     74.56      0.00     20.46      0.00     29.94      0.00     24.63       -0.65
  sub17             PermeablePavement     74.56      0.00     20.46      0.00     29.94      0.00     24.63       -0.65
  sub18             PermeablePavement     74.56      0.00     20.46      0.00     29.94      0.00     24.63       -0.65
  sub19             PermeablePavement     74.56      0.00     20.46      0.00     29.94      0.00     24.63       -0.65
  sub20             PermeablePavement     74.56      0.00     20.46      0.00     29.94      0.00     24.63       -0.65
  sub20             PermeablePavement     74.56      0.00     20.46      0.00     29.94      0.00     24.63       -0.65
  sub21             PermeablePavement     74.56      0.00     20.46      0.00     29.94      0.00     24.63       -0.65
  sub22             PermeablePavement     74.56      0.00     20.46      0.00     29.94      0.00     24.63       -0.65
  sub23             PermeablePavement     74.56      0.00     20.46      0.00     29.94      0.00     24.63       -0.65
  sub24             PermeablePavement     74.56      0.00     20.46      0.00     29.94      0.00     24.63       -0.65
  sub26             PermeablePavement     74.56      0.00     20.46      0.00     29.94      0.00     24.63       -0.65
  sub27             PermeablePavement     74.56      0.00     20.46      0.00     29.94      0.00     24.63       -0.65
  sub28             PermeablePavement     74.56      0.00     20.46      0.00     29.94      0.00     24.63       -0.65
  sub29             PermeablePavement     74.56      0.00     20.46      0.00     29.94      0.00     24.63       -0.65
  sub30             PermeablePavement     74.56      0.00     20.46      0.00     29.94      0.00     24.63       -0.65
  sub31             PermeablePavement     74.56      0.00     20.46      0.00     29.94      0.00     24.63       -0.65
  sub32             PermeablePavement     74.56      0.00     20.46      0.00     29.94      0.00     24.63       -0.65
  sub33             PermeablePavement     74.56      0.00     20.46      0.00     29.94      0.00     24.63       -0.65
  sub34             PermeablePavement     74.56      0.00     20.46      0.00     29.94      0.00     24.63       -0.65
  sub35             PermeablePavement     74.56      0.00     20.46      0.00     29.94      0.00     24.63       -0.65
  sub35             PermeablePavement     74.56      0.00     20.46      0.00     29.94      0.00     24.63       -0.65
  sub37             PermeablePavement     74.56      0.00     20.46      0.00     29.94      0.00     24.63       -0.65
  sub38             PermeablePavement     74.56      0.00     20.46      0.00     29.94      0.00     24.63       -0.65
  sub39             PermeablePavement     74.56      0.00     20.46      0.00     29.94      0.00     24.63       -0.65
  sub40             PermeablePavement     74.56      0.00     20.46      0.00     29.94      0.00     24.63       -0.65
  sub41             PermeablePavement     74.56      0.00     20.46      0.00     29.94      0.00     24.63       -0.65
  sub42             PermeablePavement     74.56      0.00     20.46      0.00     29.94      0.00     24.63       -0.65
  sub43             PermeablePavement     74.56      0.00     20.46      0.00     29.94      0.00     24.63       -0.65
  sub44             PermeablePavement     74.56      0.00     20.46      0.00     29.94      0.00     24.63       -0.65
  sub45             PermeablePavement     74.56      0.00     20.46      0.00     29.94      0.00     24.63       -0.65
  sub46             PermeablePavement     74.56      0.00     20.46      0.00     29.94      0.00     24.63       -0.65
  sub47             PermeablePavement     74.56      0.00     20.46      0.00     29.94      0.00     24.63       -0.65
  sub48             PermeablePavement     74.56      0.00     20.46      0.00     29.94      0.00     24.63       -0.65
  sub49             PermeablePavement     74.56      0.00     20.46      0.00     29.94      0.00     24.63       -0.65
  sub50             PermeablePavement     74.56      0.00     20.46      0.00     29.94      0.00     24.63       -0.65
  sub51             PermeablePavement     74.56      0.00     20.46      0.00     29.94      0.00     24.63       -0.65
  sub52             PermeablePavement     74.56      0.00     20.46      0.00     29.94      0.00     24.63       -0.65
  sub53             PermeablePavement     74.56      0.00     20.46      0.00     29.94      0.00     24.63       -0.65
  sub54             PermeablePavement     74.56      0.00     20.46      0.00     29.94      0.00     24.63       -0.65
  sub55             PermeablePavement     74.56      0.00     20.46      0.00     29.94      0.00     24.63       -0.65
  sub56             PermeablePavement     74.56      0.00     20.46      0.00     29.94      0.00     24.63       -0.65
  sub58             PermeablePavement     74.56      0.00     20.46      0.00     29.94      0.00     24.63       -0.65
  sub59             PermeablePavement     74.56      0.00     20.46      0.00     29.94      0.00     24.63       -0.65
  sub60             PermeablePavement     74.56      0.00     20.46      0.00     29.94      0.00     24.63       -0.65
  sub61             PermeablePavement     74.56      0.00     20.46      0.00     29.94      0.00     24.63       -0.65
  sub62             PermeablePavement     74.56      0.00     20.46      0.00     29.94      0.00     24.63       -0.65
  sub67             PermeablePavement     74.56      0.00     20.46      0.00     29.94      0.00     24.63       -0.65
  sub68             PermeablePavement     74.56      0.00     20.46      0.00     29.94      0.00     24.63       -0.65
  sub71             PermeablePavement     74.56      0.00     20.46      0.00     29.94      0.00     24.63       -0.65
  sub72             PermeablePavement     74.56      0.00     20.46      0.00     29.94      0.00     24.63       -0.65
  sub73             PermeablePavement     74.56      0.00     20.46      0.00     29.94      0.00     24.63       -0.65
  sub74             PermeablePavement     74.56      0.00     20.46      0.00     29.94      0.00     24.63       -0.65
  sub75             PermeablePavement     74.56      0.00     20.46      0.00     29.94      0.00     24.63       -0.65
  sub76             PermeablePavement     74.56      0.00     20.46      0.00     29.94      0.00     24.63       -0.65
  sub77             PermeablePavement     74.56      0.00     20.46      0.00     29.94      0.00     24.63       -0.65
  sub78             PermeablePavement     74.56      0.00     20.46      0.00     29.94      0.00     24.63       -0.65
  sub79             PermeablePavement     74.56      0.00     20.46      0.00     29.94      0.00     24.63       -0.65
  sub80             PermeablePavement     74.56      0.00     20.46      0.00     29.94      0.00     24.63       -0.65
  sub81             PermeablePavement     74.56      0.00     20.46      0.00     29.94      0.00     24.63       -0.65
  sub82             PermeablePavement     74.56      0.00     20.46      0.00     29.94      0.00     24.63       -0.65
  sub83             PermeablePavement     74.56      0.00     20.46      0.00     29.94      0.00     24.63       -0.65
  sub84             PermeablePavement     74.56      0.00     20.46      0.00     29.94      0.00     24.63       -0.65
  sub85             PermeablePavement     74.56      0.00     20.46      0.00     29.94      0.00     24.63       -0.65
  sub86             PermeablePavement     74.56      0.00     20.46      0.00     29.94      0.00     24.63       -0.65
  sub88             PermeablePavement     74.56      0.00     20.46      0.00     29.94      0.00     24.63       -0.65
  sub89             PermeablePavement     74.56      0.00     20.46      0.00     29.94      0.00     24.63       -0.65
  sub90             PermeablePavement     74.56      0.00     20.46      0.00     29.94      0.00     24.63       -0.65
  sub91             PermeablePavement     74.56      0.00     20.46      0.00     29.94      0.00     24.63       -0.65
  sub92             PermeablePavement     74.56      0.00     20.46      0.00     29.94      0.00     24.63       -0.65
  sub93             PermeablePavement     74.56      0.00     20.46      0.00     29.94      0.00     24.63       -0.65
  sub94             PermeablePavement     74.56      0.00     20.46      0.00     29.94      0.00     24.63       -0.65
  
  ******************
  Node Depth Summary
  ******************
  
  ---------------------------------------------------------------------------------
                                 Average  Maximum  Maximum  Time of Max    Reported
                                   Depth    Depth      HGL   Occurrence   Max Depth
  Node                 Type       Meters   Meters   Meters  days hr:min      Meters
  ---------------------------------------------------------------------------------
  WS02001211           JUNCTION     0.95     2.48     7.32     0  00:50        1.85
  WS02001212           JUNCTION     0.71     2.14     7.21     0  00:50        1.59
  WS02001213           JUNCTION     0.95     2.38     7.14     0  00:50        1.88
  WS02003069           JUNCTION     0.90     1.69     6.27     0  00:53        1.69
  WS02003072           JUNCTION     0.98     1.59     5.96     0  00:53        1.58
  WS02003073           JUNCTION     1.20     1.70     5.77     0  00:53        1.70
  WS02003076           JUNCTION     0.95     1.36     5.58     0  00:53        1.35
  WS02003060           JUNCTION     0.78     1.79     6.72     0  00:50        1.68
  WS02003066           JUNCTION     0.46     1.17     6.73     0  00:53        1.17
  WS02003059           JUNCTION     1.02     2.10     6.79     0  00:50        1.92
  WS02003115           JUNCTION     1.89     2.76     9.62     0  00:38        2.73
  WS02003116           JUNCTION     2.04     3.03     9.74     0  00:29        2.93
  WS02003118           JUNCTION     2.02     2.90     9.52     0  00:29        2.90
  WS02003215           JUNCTION     1.91     2.80     9.66     0  00:38        2.80
  WS02003110           JUNCTION     1.56     2.30     9.56     0  00:51        2.30
  WS02003111           JUNCTION     1.67     2.35     9.44     0  00:38        2.35
  WS02005155           JUNCTION     1.53     2.36     9.67     0  00:51        2.34
  WS02005154           JUNCTION     1.30     2.19     9.82     0  00:51        2.18
  WS02005193           JUNCTION     1.34     3.22    11.04     0  00:48        2.91
  WS02005196           JUNCTION     1.31     3.31    11.16     0  00:48        2.88
  WS02003067           JUNCTION     0.79     1.48     6.80     0  00:53        1.46
  WS02004401           JUNCTION     1.39     2.49     8.49     0  00:51        2.45
  WS02004402           JUNCTION     1.39     2.50     8.46     0  00:51        2.46
  WS02004403           JUNCTION     1.37     2.50     8.43     0  00:52        2.46
  WS02004404           JUNCTION     1.42     2.56     8.41     0  00:52        2.53
  WS02004406           JUNCTION     1.35     2.52     8.35     0  00:51        2.49
  WS02004409           JUNCTION     1.12     2.31     8.08     0  00:53        2.29
  WS02004410           JUNCTION     1.03     2.11     7.83     0  00:53        2.08
  WS02004411           JUNCTION     0.96     1.88     7.56     0  00:53        1.86
  WS02004412           JUNCTION     0.88     1.65     7.29     0  00:53        1.63
  WS02004413           JUNCTION     0.93     1.56     7.03     0  00:53        1.53
  WS02004405           JUNCTION     1.39     2.54     8.39     0  00:52        2.51
  WS02006109           JUNCTION     1.87     2.64     9.26     0  00:46        2.64
  WS02006110           JUNCTION     1.68     2.48     9.07     0  00:55        2.48
  WS02006111           JUNCTION     1.08     2.00     8.70     0  00:52        1.99
  WS02006112           JUNCTION     1.69     2.68     8.56     0  00:00        2.68
  WS02006113           JUNCTION     1.16     2.00     8.89     0  00:51        1.99
  WS02006115           JUNCTION     1.36     2.41     8.55     0  00:51        2.38
  WS02006116           JUNCTION     1.41     2.49     8.53     0  00:51        2.45
  WS02006230           JUNCTION     1.94     2.65     9.39     0  00:43        2.65
  WS02006231           JUNCTION     1.55     2.19     9.31     0  01:17        2.19
  WS02006232           JUNCTION     1.60     2.18     9.22     0  00:43        2.18
  WS02006234           JUNCTION     1.44     1.96     9.12     0  00:41        1.96
  WS02006235           JUNCTION     1.42     1.93     9.10     0  01:33        1.93
  WS02006238           JUNCTION     1.43     1.93     9.08     0  01:11        1.93
  WS02006240           JUNCTION     1.23     1.63     8.92     0  01:15        1.62
  WS02006242           JUNCTION     1.21     1.55     8.82     0  00:36        1.55
  WS02006243           JUNCTION     1.06     1.37     8.79     0  00:59        1.37
  WS02006245           JUNCTION     0.99     1.27     8.75     0  01:18        1.27
  WS02006247           JUNCTION     0.98     1.23     8.73     0  00:42        1.22
  WS02006248           JUNCTION     0.89     1.10     8.69     0  00:34        1.10
  WS02006249           JUNCTION     0.89     1.09     8.69     0  00:31        1.09
  WS02006239           JUNCTION     1.34     1.79     9.00     0  00:42        1.78
  WS02006251           JUNCTION     1.29     2.21     9.88     0  00:48        2.15
  WS02006252           JUNCTION     0.90     1.50     9.74     0  00:48        1.50
  WS02006253           JUNCTION     1.51     3.52    11.16     0  00:48        3.08
  WS02006256           JUNCTION     1.81     2.35     9.28     0  00:18        2.35
  WS02004138           JUNCTION     0.12     0.14     7.39     0  00:33        0.14
  WS02004139           JUNCTION     0.88     2.44     7.35     0  00:50        1.79
  WS02004407           JUNCTION     0.76     2.06     8.37     0  00:51        1.96
  WS02006228           JUNCTION     2.07     3.03     9.68     0  00:50        3.03
  WS02006229           JUNCTION     2.16     3.23     9.92     0  00:51        3.22
  WS02006280           JUNCTION     0.90     1.75    10.02     0  00:50        1.74
  WS02006284           JUNCTION     1.07     1.95    10.35     0  00:50        1.94
  WS02006287           JUNCTION     0.82     1.75    10.70     0  00:50        1.73
  WS02003091           JUNCTION     2.74     4.43    10.23     0  00:00        3.91
  WS02003203           JUNCTION     2.68     3.83     9.82     0  00:42        3.83
  WS6145               JUNCTION     0.31     2.33    10.43     0  00:53        2.32
  WS6147               JUNCTION     0.24     2.25    10.53     0  00:52        2.17
  WS6150               JUNCTION     0.24     2.23    10.56     0  00:52        2.13
  WS6152               JUNCTION     0.25     2.20    10.54     0  00:52        2.15
  WS6155               JUNCTION     0.22     2.10    10.50     0  00:51        2.10
  WS6156               JUNCTION     0.20     2.05    10.52     0  00:52        2.05
  WS6136               JUNCTION     0.28     1.90    10.85     0  00:52        1.90
  WS6140               JUNCTION     0.34     2.47    10.40     0  00:53        2.45
  WS6142               JUNCTION     0.30     2.34    10.42     0  00:53        2.33
  WS6325               JUNCTION     0.55     2.74    10.39     0  00:53        2.72
  WS6327               JUNCTION     0.41     2.58    10.39     0  00:54        2.58
  WS6329               JUNCTION     0.37     2.51    10.39     0  00:53        2.50
  WS6332               JUNCTION     0.31     2.53    10.56     0  00:51        2.36
  WS6158               JUNCTION     0.18     2.05    10.59     0  00:52        2.05
  WS6335               JUNCTION     0.30     2.60    10.67     0  00:51        2.32
  WS6338               JUNCTION     0.25     2.55    10.75     0  00:51        2.26
  WS6340               JUNCTION     0.22     2.50    10.84     0  00:51        2.19
  WS6342               JUNCTION     0.17     2.50    11.10     0  00:51        1.95
  WS6135               JUNCTION     0.71     2.89    10.38     0  00:53        2.88
  WS6396               JUNCTION     0.44     2.02     9.57     0  00:53        2.01
  WS6399               JUNCTION     0.27     1.37     8.80     0  00:53        1.36
  WS02003082           JUNCTION     1.32     1.93     7.00     0  00:53        1.92
  WS02003077           JUNCTION     0.45     0.84     5.85     0  00:53        0.84
  WS02003080           JUNCTION     0.86     1.30     6.24     0  00:52        1.30
  WS02003083           JUNCTION     1.69     2.41     7.44     0  00:54        2.40
  WS02003084           JUNCTION     1.82     2.60     7.70     0  00:52        2.60
  WS02003085           JUNCTION     1.90     2.72     7.89     0  00:54        2.72
  WS02003086           JUNCTION     2.14     3.02     8.23     0  00:53        3.01
  WS02003087           JUNCTION     2.40     3.36     8.57     0  00:54        3.35
  WS02003088           JUNCTION     2.58     4.14     9.43     0  00:00        4.07
  WS02003089           JUNCTION     2.69     4.34     9.80     0  00:00        4.02
  WS02003090           JUNCTION     2.90     4.43     9.86     0  00:00        4.05
  WS02003081           JUNCTION     1.07     1.61     6.66     0  00:53        1.61
  WS02003122           JUNCTION     2.20     3.30     9.67     0  00:28        3.10
  WS02003187           JUNCTION     2.22     3.11     9.44     0  00:28        3.11
  WS02003188           JUNCTION     2.21     2.97     9.23     0  00:48        2.97
  WS02003190           JUNCTION     2.20     2.84     9.04     0  00:36        2.84
  WS02003193           JUNCTION     2.19     2.85     9.09     0  00:36        2.85
  WS02003195           JUNCTION     2.21     2.93     9.18     0  00:36        2.93
  WS02003196           JUNCTION     2.32     3.12     9.30     0  00:51        3.11
  WS02003198           JUNCTION     2.35     3.20     9.38     0  00:51        3.19
  WS02003200           JUNCTION     2.11     3.00     9.43     0  00:36        2.93
  WS02003201           JUNCTION     2.37     3.22     9.36     0  00:36        3.22
  WS02003202           JUNCTION     2.51     4.17    10.23     0  00:00        3.48
  WS02004041           JUNCTION     0.63     0.98     5.34     0  00:53        0.98
  WSA6400              JUNCTION     1.05     2.43     8.27     0  00:53        2.41
  WS6400               JUNCTION     0.41     1.69     8.35     0  00:53        1.68
  WSF208               JUNCTION     0.76     1.95     8.05     0  00:52        1.94
  WSF207               JUNCTION     0.66     1.69     7.83     0  00:52        1.68
  WSF206               JUNCTION     0.75     1.74     7.67     0  00:53        1.73
  WSF205               JUNCTION     0.68     1.61     7.51     0  00:53        1.60
  WSF204               JUNCTION     1.21     2.17     7.32     0  00:53        2.16
  WSF203               JUNCTION     0.60     1.37     7.07     0  00:53        1.37
  WSF202               JUNCTION     0.53     1.20     6.92     0  00:53        1.19
  WSF201               JUNCTION     0.45     1.05     6.77     0  00:53        1.04
  WSF200               JUNCTION     0.58     1.46     6.69     0  00:53        1.45
  HS02004901           JUNCTION     0.67     1.42    11.24     0  00:46        1.42
  HS02004881           JUNCTION     0.48     2.15    11.18     0  00:48        1.82
  HS02004876           JUNCTION     0.60     2.20    11.23     0  00:48        2.07
  HS02004870           JUNCTION     0.51     2.10    11.39     0  00:48        1.99
  HS02004862           JUNCTION     0.51     2.00    11.38     0  00:48        2.00
  HS02004856           JUNCTION     0.54     2.07    11.50     0  00:48        2.07
  HS02004852           JUNCTION     0.49     2.12    11.63     0  00:48        2.00
  HS02004848           JUNCTION     0.47     2.07    11.67     0  00:48        1.93
  HS02004842           JUNCTION     0.78     2.22    11.49     0  00:48        2.22
  HS02004837           JUNCTION     0.49     2.04    11.62     0  00:47        1.90
  HS02004830           JUNCTION     0.57     2.03    11.50     0  00:48        1.97
  HS02004824           JUNCTION     0.61     2.01    11.41     0  00:47        2.01
  HS02004817           JUNCTION     1.09     2.44    11.29     0  00:48        2.40
  HS02004807           JUNCTION     0.78     1.92    11.09     0  00:48        1.92
  HS02004802           JUNCTION     0.79     1.80    10.93     0  00:50        1.80
  HS02004799           JUNCTION     0.89     1.76    10.97     0  00:47        1.76
  HS02004792           JUNCTION     0.69     1.60    11.12     0  00:44        1.60
  HS02004788           JUNCTION     0.51     1.42    11.32     0  00:46        1.34
  HS02004785           JUNCTION     0.56     1.49    11.39     0  00:46        1.35
  HS02004777           JUNCTION     0.68     1.48    11.28     0  00:46        1.45
  HS02004770           JUNCTION     0.67     1.42    11.25     0  00:46        1.42
  HS02004480           JUNCTION     0.79     1.67    10.91     0  00:48        1.64
  HS02004479           JUNCTION     0.83     1.69    10.89     0  00:48        1.67
  HS02004478           JUNCTION     0.68     1.59    10.82     0  00:50        1.59
  HS02004053           JUNCTION     0.24     1.90    10.67     0  00:51        1.09
  HS02004052           JUNCTION     0.30     1.47    11.12     0  00:51        1.39
  HS02004049           JUNCTION     0.17     1.04    11.72     0  00:52        0.85
  HS02004048           JUNCTION     0.41     1.70    12.60     0  00:50        1.70
  HS02004046           JUNCTION     0.39     1.80    13.51     0  00:50        1.32
  HS02004043           JUNCTION     0.17     1.82    14.51     0  00:50        0.90
  HS02004041           JUNCTION     0.12     0.30    15.74     0  00:52        0.30
  HS02004038           JUNCTION     0.12     0.30    18.98     0  00:52        0.30
  HS02004036           JUNCTION     0.00     0.00    22.46     0  00:00        0.00
  HS02004034           JUNCTION     0.00     0.00    26.83     0  00:00        0.00
  HS02004028           JUNCTION     0.18     0.51    37.36     0  00:49        0.51
  HS02004027           JUNCTION     0.14     0.34    36.47     0  00:49        0.34
  HS02004026           JUNCTION     0.15     0.35    35.75     0  00:50        0.35
  HS02004024           JUNCTION     0.15     0.42    34.63     0  00:50        0.41
  HS02004022           JUNCTION     0.20     0.80    33.84     0  00:49        0.80
  HS02004021           JUNCTION     0.24     0.81    32.54     0  00:47        0.81
  HS02004019           JUNCTION     0.30     0.80    31.76     0  00:46        0.80
  HS02004018           JUNCTION     0.20     0.60    33.81     0  00:49        0.60
  HS02004017           JUNCTION     0.19     0.53    34.37     0  00:49        0.53
  HS02004013           JUNCTION     0.12     0.40    35.54     0  00:52        0.40
  HS02004010           JUNCTION     0.05     0.17    38.03     0  00:52        0.17
  HS02003174           JUNCTION     0.16     0.41     5.95     0  00:52        0.41
  HS02003171           JUNCTION     0.18     0.46     6.15     0  00:51        0.46
  HS02003170           JUNCTION     0.22     0.44     6.90     0  00:52        0.44
  HS02003168           JUNCTION     0.11     0.28     6.78     0  00:52        0.28
  HS02003166           JUNCTION     0.21     0.45     6.92     0  00:52        0.45
  HS02003162           JUNCTION     0.20     0.42    30.67     0  00:47        0.42
  HS02003160           JUNCTION     0.15     0.35    28.41     0  00:51        0.35
  HS02003150           JUNCTION     0.16     0.38    26.39     0  00:51        0.37
  HS02003148           JUNCTION     0.18     0.46    22.20     0  00:51        0.46
  HS02003145           JUNCTION     0.23     0.81    14.68     0  00:50        0.81
  HS02003143           JUNCTION     0.34     0.80    13.27     0  00:44        0.80
  HS02003138           JUNCTION     0.16     0.38     6.87     0  01:38        0.38
  HS02003136           JUNCTION     1.36     2.28    10.00     0  00:00        2.28
  HS02003125           JUNCTION     1.46     2.38     9.83     0  00:38        2.26
  HS02003122           JUNCTION     1.50     2.46     9.89     0  00:38        2.33
  HS02003119           JUNCTION     1.27     2.53    10.24     0  00:38        2.11
  HS02003116           JUNCTION     0.97     2.43    10.55     0  00:38        1.71
  HS02003111           JUNCTION     0.44     0.82     9.83     0  00:51        0.82
  HS02003108           JUNCTION     0.35     0.98    10.10     0  00:48        0.75
  HS02003100           JUNCTION     0.24     0.68     9.91     0  00:51        0.65
  HS02003088           JUNCTION     0.19     0.63     9.92     0  00:51        0.62
  HS02003084           JUNCTION     0.07     0.50     9.93     0  00:52        0.49
  HS02003079           JUNCTION     0.05     0.43     9.94     0  00:52        0.42
  HS02003077           JUNCTION     0.01     0.23     9.97     0  00:51        0.23
  HS02003065           JUNCTION     0.60     1.60    10.84     0  00:50        1.58
  HS02003056           JUNCTION     0.63     1.74    10.68     0  00:50        1.67
  HS02003053           JUNCTION     0.42     1.66    10.96     0  00:42        1.49
  HS02003042           JUNCTION     0.27     1.69    11.35     0  00:44        1.25
  HS02003039           JUNCTION     0.31     1.75    11.40     0  00:50        1.34
  HS02003036           JUNCTION     0.14     1.41    11.47     0  00:50        1.07
  HS02003028           JUNCTION     0.25     1.40    11.14     0  00:49        1.40
  HS02003021           JUNCTION     0.26     1.55    10.92     0  00:49        1.48
  HS02003018           JUNCTION     0.27     1.48    10.69     0  00:49        1.48
  HS02003017           JUNCTION     0.27     1.48    10.64     0  00:49        1.47
  HS02003013           JUNCTION     0.27     1.47    10.52     0  00:49        1.41
  HS02003010           JUNCTION     0.30     1.53    10.33     0  00:49        1.29
  HS02003007           JUNCTION     0.27     1.37     9.98     0  00:49        1.08
  HS02003004           JUNCTION     0.36     1.12     9.44     0  00:49        0.98
  HS02003001           JUNCTION     0.10     0.27     8.57     0  00:52        0.27
  YS02001738           JUNCTION     0.00     0.00     8.89     0  00:00        0.00
  YS02001739           JUNCTION     0.00     0.00     8.37     0  00:00        0.00
  YS02001742           JUNCTION     0.00     0.00     8.49     0  00:00        0.00
  YS02001745           JUNCTION     0.13     0.32     7.84     0  00:52        0.32
  YS02001748           JUNCTION     0.15     0.37     7.45     0  00:52        0.37
  YS02001751           JUNCTION     0.15     0.37     7.24     0  00:53        0.36
  YS02001754           JUNCTION     0.14     0.46     7.07     0  00:54        0.46
  YS02001762           JUNCTION     0.33     0.91     7.31     0  00:53        0.91
  YS02001765           JUNCTION     0.31     0.90     7.35     0  00:53        0.90
  YS02001767           JUNCTION     0.33     0.93     7.42     0  00:53        0.92
  YS02001770           JUNCTION     0.39     1.01     7.51     0  00:53        1.01
  YS02001774           JUNCTION     0.46     1.10     7.52     0  00:53        1.08
  YS02001779           JUNCTION     0.21     0.82     7.51     0  00:53        0.82
  YS02001882           JUNCTION     0.69     1.73     8.44     0  00:48        1.70
  YS02001884           JUNCTION     0.78     1.80     8.42     0  00:48        1.79
  YS02001759           JUNCTION     0.33     0.90     7.26     0  00:54        0.90
  YS02001887           JUNCTION     0.86     1.84     8.38     0  00:48        1.83
  YS02001890           JUNCTION     0.89     1.81     8.32     0  00:48        1.81
  YS02001898           JUNCTION     0.66     1.77     8.51     0  00:48        1.56
  YS02001901           JUNCTION     0.76     1.77     8.38     0  00:48        1.67
  YS02001904           JUNCTION     0.74     1.66     8.29     0  00:48        1.63
  YS02001907           JUNCTION     1.06     1.96     8.25     0  00:48        1.96
  YS02001910           JUNCTION     0.87     2.00     8.51     0  00:51        1.98
  YS02001915           JUNCTION     0.71     2.00     8.72     0  00:48        1.94
  YS02001918           JUNCTION     0.44     1.81     8.88     0  00:49        1.81
  YS02001920           JUNCTION     0.53     2.14     9.15     0  00:51        2.03
  YS02001923           JUNCTION     0.36     2.03     9.29     0  00:51        1.92
  YS02001926           JUNCTION     0.38     1.90     9.35     0  00:50        1.88
  YS02001929           JUNCTION     0.24     1.78     9.47     0  00:51        1.77
  YS02001932           JUNCTION     0.15     1.77     9.57     0  00:51        1.77
  YS02001935           JUNCTION     0.10     1.75     9.68     0  00:51        1.75
  YS02001757           JUNCTION     0.31     0.85     7.11     0  00:53        0.85
  YS02001895           JUNCTION     0.65     1.68     8.43     0  00:48        1.56
  YS02005679           JUNCTION     0.00     0.00    10.24     0  00:00        0.00
  YS02005559           JUNCTION     0.09     0.18    10.12     0  00:53        0.18
  YS02005651           JUNCTION     0.06     0.15    10.92     0  00:52        0.15
  YS02005670           JUNCTION     0.07     0.16    10.62     0  00:51        0.16
  YS02005547           JUNCTION     0.05     0.14    10.67     0  00:51        0.13
  YS02005549           JUNCTION     0.07     0.20    11.11     0  00:51        0.20
  YS02005550           JUNCTION     0.09     0.22    10.85     0  00:52        0.22
  YS02005551           JUNCTION     0.05     0.13    10.50     0  00:52        0.13
  YS02005553           JUNCTION     0.11     0.25    10.61     0  00:53        0.25
  YS02005554           JUNCTION     0.06     0.12    10.36     0  00:53        0.12
  YS02005556           JUNCTION     0.11     0.24    10.29     0  00:53        0.23
  YS02005557           JUNCTION     0.06     0.12    10.09     0  00:53        0.12
  YS02005560           JUNCTION     0.07     0.13     9.88     0  00:53        0.13
  YS02005562           JUNCTION     0.10     0.21     9.95     0  00:53        0.21
  YS02005563           JUNCTION     0.06     0.12     9.78     0  00:53        0.12
  YS02005565           JUNCTION     0.09     0.18     9.89     0  00:53        0.18
  YS02005566           JUNCTION     0.08     0.15     9.54     0  00:53        0.15
  YS02005568           JUNCTION     0.11     0.23     9.73     0  00:53        0.23
  YS02005569           JUNCTION     0.09     0.17     9.50     0  00:53        0.17
  YS02005598           JUNCTION     0.20     1.07    10.91     0  00:48        1.07
  YS02005600           JUNCTION     0.19     1.02    10.68     0  00:48        1.02
  YS02005602           JUNCTION     0.42     2.15    10.43     0  00:49        2.15
  YS02005603           JUNCTION     0.14     1.21     9.33     0  00:49        0.58
  YS02005609           JUNCTION     0.07     0.19     9.08     0  00:52        0.19
  YS02005653           JUNCTION     0.09     0.47    11.44     0  00:51        0.43
  YS02005654           JUNCTION     0.11     0.42    11.18     0  00:51        0.39
  YS02005655           JUNCTION     0.05     0.12    10.76     0  00:52        0.12
  YS02005595           JUNCTION     0.30     1.36    11.04     0  00:47        1.36
  YS02005658           JUNCTION     0.09     0.24    11.14     0  00:52        0.24
  YS02005659           JUNCTION     0.05     0.13    10.78     0  00:52        0.13
  YS02005661           JUNCTION     0.11     0.45    11.16     0  00:51        0.36
  YS02005662           JUNCTION     0.05     0.12    10.74     0  00:52        0.12
  YS02005664           JUNCTION     0.11     0.28    10.87     0  00:52        0.28
  YS02005665           JUNCTION     0.04     0.10    10.66     0  00:52        0.10
  YS02005668           JUNCTION     0.04     0.11    10.27     0  00:52        0.11
  YS02005667           JUNCTION     0.25     0.50    10.52     0  00:51        0.50
  YS02005571           JUNCTION     0.13     0.26     9.74     0  00:53        0.26
  YS02005572           JUNCTION     0.10     0.19     9.54     0  00:53        0.19
  YS02005576           JUNCTION     0.10     0.20     9.96     0  00:53        0.20
  YS02005577           JUNCTION     0.09     0.18     9.66     0  00:53        0.18
  YS02005579           JUNCTION     0.19     0.54    10.17     0  00:53        0.54
  YS02005580           JUNCTION     0.11     0.25     9.78     0  00:53        0.25
  YS02005582           JUNCTION     0.27     0.86    10.94     0  00:50        0.86
  YS02005583           JUNCTION     0.14     0.85    10.85     0  00:50        0.41
  YS02005612           JUNCTION     0.39     1.28     9.41     0  00:52        1.28
  YS02005615           JUNCTION     0.05     0.13    11.62     0  00:51        0.13
  YS02005616           JUNCTION     0.04     0.11    10.93     0  00:51        0.11
  YS02005618           JUNCTION     0.07     0.19    11.04     0  00:51        0.19
  YS02005619           JUNCTION     0.04     0.12    10.67     0  00:51        0.11
  YS02005621           JUNCTION     0.08     0.23    11.34     0  00:51        0.23
  YS02005622           JUNCTION     0.04     0.10    11.06     0  00:51        0.10
  YS02005625           JUNCTION     0.03     0.08    11.10     0  00:51        0.08
  YS02005627           JUNCTION     0.09     0.23    11.16     0  00:51        0.23
  YS02005628           JUNCTION     0.04     0.09    10.99     0  00:51        0.09
  YS02005630           JUNCTION     0.08     0.23    11.31     0  00:52        0.23
  YS02005631           JUNCTION     0.04     0.11    10.98     0  00:52        0.11
  YS02005633           JUNCTION     0.08     0.21    11.34     0  00:52        0.21
  YS02005634           JUNCTION     0.05     0.12    10.95     0  00:52        0.12
  YS02005636           JUNCTION     0.09     0.26    11.26     0  00:52        0.26
  YS02005637           JUNCTION     0.05     0.13    10.90     0  00:52        0.13
  YS02005639           JUNCTION     0.09     0.24    10.87     0  00:52        0.24
  YS02005640           JUNCTION     0.05     0.14    10.47     0  00:52        0.14
  YS02005642           JUNCTION     0.07     0.17    11.00     0  00:52        0.17
  YS02005644           JUNCTION     0.09     0.24    11.35     0  00:52        0.24
  YS02005645           JUNCTION     0.06     0.15    10.96     0  00:52        0.15
  YS02005647           JUNCTION     0.18     0.89    11.79     0  00:52        0.89
  YS02005648           JUNCTION     0.08     0.21    11.00     0  00:52        0.21
  YS02005650           JUNCTION     0.11     0.50    11.39     0  00:50        0.39
  YS02005671           JUNCTION     0.03     0.08    10.31     0  00:51        0.08
  YS02005673           JUNCTION     0.07     0.18    10.54     0  00:52        0.18
  YS02005674           JUNCTION     0.05     0.12    10.01     0  00:52        0.12
  YS02005676           JUNCTION     0.00     0.00    10.24     0  00:00        0.00
  YS02005680           JUNCTION     0.05     0.11    10.21     0  00:52        0.11
  YS02005682           JUNCTION     0.00     0.00    10.06     0  00:00        0.00
  YS02005683           JUNCTION     0.03     0.06     9.96     0  00:51        0.06
  YS02005376           JUNCTION     0.73     1.01    11.10     0  00:33        1.01
  YS02005378           JUNCTION     1.25     1.63    11.15     0  00:33        1.62
  YS02005381           JUNCTION     1.13     1.57    11.20     0  00:33        1.57
  YS02005624           JUNCTION     0.20     0.34    11.23     0  00:50        0.34
  YS02005384           JUNCTION     0.36     1.10    10.75     0  00:33        0.53
  YS02005677           JUNCTION     0.05     0.13    10.21     0  00:52        0.13
  YSB1105              JUNCTION     0.25     0.53    10.01     0  00:51        0.51
  YSB1106              JUNCTION     0.23     1.51    11.35     0  00:51        0.71
  YSB1109              JUNCTION     0.28     1.52    11.46     0  00:51        0.99
  YSB1112              JUNCTION     0.28     1.70    11.83     0  00:51        1.19
  YSB1115              JUNCTION     0.25     1.90    12.20     0  00:51        1.20
  YSB1118              JUNCTION     0.26     1.80    12.34     0  00:51        1.40
  YSB1121              JUNCTION     0.31     1.70    12.37     0  00:51        1.70
  YSB1124              JUNCTION     0.18     1.60    12.43     0  00:51        1.54
  YSB1128              JUNCTION     0.36     1.85    12.43     0  00:47        1.85
  YSB1132              JUNCTION     0.40     1.90    12.35     0  00:47        1.85
  YSB1228              JUNCTION     0.05     0.15    10.99     0  00:51        0.15
  YSB1202              JUNCTION     0.87     1.50    12.39     0  00:44        1.46
  YSB1135              JUNCTION     0.52     2.00    12.26     0  00:47        1.93
  YSB1138              JUNCTION     0.61     1.90    12.07     0  00:47        1.90
  YSB1141              JUNCTION     0.65     2.00    11.83     0  00:47        1.89
  YSB1145              JUNCTION     0.66     2.00    11.69     0  00:47        1.86
  YSB1148              JUNCTION     0.73     2.00    11.50     0  00:47        1.89
  YSB1151              JUNCTION     0.92     2.08    11.31     0  00:47        2.00
  YSB1154              JUNCTION     1.06     2.10    11.16     0  00:47        2.10
  YSB1198              JUNCTION     0.16     1.60    12.39     0  00:48        1.18
  YSB1192              JUNCTION     0.33     1.90    12.17     0  00:47        1.70
  YSB6556              JUNCTION     0.91     1.80    10.97     0  00:47        1.80
  YSB1205              JUNCTION     1.05     1.65    12.35     0  00:44        1.65
  YSB1209              JUNCTION     1.02     1.65    12.22     0  00:44        1.65
  YSB1212              JUNCTION     0.91     1.60    12.13     0  00:44        1.60
  YSB1215              JUNCTION     0.91     1.70    12.05     0  00:44        1.69
  YSB1218              JUNCTION     0.90     1.75    11.94     0  00:50        1.75
  YSB1221              JUNCTION     0.86     1.78    11.75     0  00:44        1.58
  YSB1224              JUNCTION     0.76     1.33    11.18     0  00:57        1.33
  YSB1195              JUNCTION     0.29     1.90    12.28     0  00:47        1.58
  YSB1189              JUNCTION     0.43     1.80    11.96     0  00:47        1.80
  YSB1186              JUNCTION     0.49     1.93    11.80     0  00:47        1.74
  YSB1183              JUNCTION     0.62     2.05    11.64     0  00:47        1.87
  YSB1180              JUNCTION     0.65     1.95    11.46     0  00:47        1.82
  YSB1177              JUNCTION     0.90     2.05    11.24     0  00:47        2.01
  YSB1174              JUNCTION     0.96     1.95    11.06     0  00:47        1.95
  YSB1171              JUNCTION     1.13     1.95    10.85     0  00:46        1.95
  YS02006553           JUNCTION     1.05     2.04     8.32     0  00:49        1.97
  YS02006561           JUNCTION     0.36     1.33     7.99     0  00:49        0.96
  YS02006562           JUNCTION     0.83     1.94     8.45     0  00:49        1.77
  YS02006556           JUNCTION     1.02     2.10     8.41     0  00:49        1.96
  YS02006558           JUNCTION     1.06     2.17     8.44     0  00:49        2.01
  YS6132               JUNCTION     0.50     2.41     9.73     0  00:52        1.31
  YS6137               JUNCTION     0.23     1.60     9.40     0  00:52        1.26
  YS6189               JUNCTION     0.33     1.87     9.66     0  00:52        1.08
  YS6184               JUNCTION     0.32     1.68     9.57     0  00:52        1.10
  YS6179               JUNCTION     0.26     1.51     9.49     0  00:52        1.03
  YS6176               JUNCTION     0.18     0.85     9.05     0  00:52        0.84
  YS6171               JUNCTION     0.20     0.74     9.15     0  00:53        0.69
  YS6168               JUNCTION     0.22     0.69     9.20     0  00:54        0.67
  YS6164               JUNCTION     0.05     0.49     9.22     0  00:53        0.49
  YS6162               JUNCTION     0.10     0.64     9.29     0  00:53        0.59
  YS6187               JUNCTION     0.37     2.09     9.87     0  00:52        1.12
  YS6363               JUNCTION     0.28     2.60    10.39     0  00:52        1.07
  YS6360               JUNCTION     0.39     2.53    10.33     0  00:52        1.23
  YS6354               JUNCTION     0.35     2.22    10.37     0  00:52        1.57
  YS6351               JUNCTION     0.42     2.49    10.70     0  00:52        1.97
  YS6350               JUNCTION     0.48     2.50    10.72     0  00:52        2.22
  YS6348               JUNCTION     0.43     2.45    10.85     0  00:50        2.45
  YS6344               JUNCTION     0.25     2.40    10.99     0  00:49        2.26
  YS6375               JUNCTION     0.08     0.27     8.69     0  00:51        0.27
  YS6377               JUNCTION     0.14     0.33     8.69     0  00:52        0.33
  YS6381               JUNCTION     0.15     0.38     8.51     0  00:52        0.38
  YS6386               JUNCTION     0.17     0.44     8.42     0  00:52        0.44
  YS6390               JUNCTION     0.39     0.59     8.28     0  00:52        0.59
  YS6394               JUNCTION     0.10     0.23     8.15     0  00:53        0.23
  YS6404               JUNCTION     0.47     3.00    10.23     0  00:52        1.16
  YS6401               JUNCTION     0.15     0.40     7.62     0  00:52        0.40
  YS02004319           JUNCTION     0.25     1.18    20.80     0  00:47        1.18
  YS02004320           JUNCTION     0.00     0.00    22.64     0  01:00        0.00
  YS02004321           JUNCTION     0.00     0.00    26.80     0  00:57        0.00
  YS02004307           JUNCTION     0.14     0.52    11.05     0  00:53        0.52
  YS02004309           JUNCTION     0.69     1.55    13.07     0  00:39        1.55
  YS02004312           JUNCTION     0.40     1.48    14.91     0  00:46        1.48
  YS02004314           JUNCTION     0.29     1.28    16.99     0  00:46        1.28
  YS02004316           JUNCTION     0.29     1.36    19.13     0  00:47        1.36
  YS02001783           JUNCTION     0.57     1.56     7.70     0  00:49        1.29
  YS02001784           JUNCTION     0.55     1.29     7.36     0  00:49        1.18
  YS02001786           JUNCTION     0.45     1.00     7.03     0  00:49        0.92
  YS02001788           JUNCTION     0.33     0.62     6.60     0  00:49        0.62
  YS02001790           JUNCTION     0.39     0.72     6.37     0  00:57        0.71
  YS02001791           JUNCTION     0.24     0.44     5.91     0  00:56        0.43
  YS02001793           JUNCTION     0.12     0.29     5.12     0  00:51        0.28
  YS02003309           JUNCTION     0.59     1.21     9.77     0  00:34        1.04
  YS02003306           JUNCTION     0.71     1.16     9.60     0  00:34        1.16
  YS02003269           JUNCTION     0.13     0.17     7.76     0  00:48        0.17
  YS02003272           JUNCTION     0.37     0.87     8.60     0  00:34        0.58
  YS02003278           JUNCTION     0.72     1.21     9.13     0  01:00        1.21
  YS02003281           JUNCTION     0.79     1.39     9.47     0  00:47        1.39
  YS02003284           JUNCTION     0.88     1.40     9.41     0  00:47        1.40
  YS02003287           JUNCTION     0.84     1.27     9.34     0  00:34        1.27
  YS02003290           JUNCTION     0.71     1.11     9.40     0  00:34        1.10
  YS02003294           JUNCTION     0.86     1.24     9.42     0  00:34        1.24
  YS02003275           JUNCTION     0.54     0.92     8.83     0  00:53        0.92
  YS02003297           JUNCTION     0.84     1.22     9.43     0  00:35        1.22
  YS02003300           JUNCTION     0.78     1.15     9.42     0  00:34        1.15
  YS02003303           JUNCTION     0.77     1.14     9.46     0  00:34        1.14
  YSB1227              JUNCTION     0.01     0.09    10.99     0  00:51        0.09
  CaochengRainPumpOutfall1 OUTFALL      0.00     0.00     6.00     0  00:00        0.00
  JiankangRainPumpOutfall2 OUTFALL      0.00     0.00     6.00     0  00:00        0.00
  JiankangRainPumpOutfall1 OUTFALL      0.00     0.00     6.00     0  00:00        0.00
  CaochengRainPumpOutfall2 OUTFALL      0.00     0.00     6.00     0  00:00        0.00
  YS02005684           OUTFALL      0.03     0.06     8.47     0  00:51        0.06
  YS02005681           OUTFALL      0.05     0.11     9.33     0  00:52        0.11
  YS02005678           OUTFALL      0.05     0.13     8.66     0  00:52        0.13
  YS02005675           OUTFALL      0.05     0.12     8.66     0  00:52        0.12
  YS02005672           OUTFALL      0.03     0.08     8.42     0  00:51        0.08
  YS02005669           OUTFALL      0.04     0.10     8.82     0  00:52        0.10
  YS02005666           OUTFALL      0.04     0.10     8.78     0  00:52        0.10
  YS02005663           OUTFALL      0.05     0.12     8.85     0  00:52        0.12
  YS02005660           OUTFALL      0.05     0.13     8.94     0  00:52        0.12
  YS02005657           OUTFALL      0.00     0.00     8.74     0  00:00        0.00
  YS02005652           OUTFALL      0.06     0.15     8.78     0  00:52        0.15
  YS02005649           OUTFALL      0.08     0.21     8.91     0  00:52        0.21
  YS02005646           OUTFALL      0.06     0.15     8.15     0  00:52        0.15
  YS02005643           OUTFALL      0.07     0.17     8.73     0  00:52        0.17
  YS02005641           OUTFALL      0.05     0.14     8.84     0  00:52        0.14
  YS02005638           OUTFALL      0.05     0.13     8.79     0  00:52        0.13
  YS02005635           OUTFALL      0.05     0.12     8.78     0  00:52        0.12
  YS02005632           OUTFALL      0.04     0.11     8.67     0  00:52        0.11
  YS02005629           OUTFALL      0.04     0.09     8.57     0  00:51        0.09
  YS02005626           OUTFALL      0.03     0.08     8.60     0  00:51        0.08
  YS02005623           OUTFALL      0.04     0.10     8.57     0  00:51        0.10
  YS02005620           OUTFALL      0.04     0.11     8.91     0  00:51        0.11
  YS02005617           OUTFALL      0.04     0.11     8.95     0  00:51        0.11
  YSB1103              OUTFALL      0.25     0.60     8.60     0  00:51        0.60
  YSB1229              OUTFALL      0.05     0.15     8.95     0  00:51        0.14
  YS02005548           OUTFALL      0.05     0.14     9.13     0  00:51        0.13
  YS02005552           OUTFALL      0.05     0.13     8.75     0  00:52        0.13
  YS02005555           OUTFALL      0.06     0.12     8.85     0  00:53        0.12
  YS02005558           OUTFALL      0.06     0.12     8.82     0  00:53        0.12
  YS02005561           OUTFALL      0.07     0.13     8.81     0  00:53        0.13
  YS02005564           OUTFALL      0.06     0.12     8.60     0  00:53        0.12
  YS02005567           OUTFALL      0.08     0.15     8.69     0  00:53        0.15
  YS02005570           OUTFALL      0.09     0.17     8.89     0  00:53        0.17
  YS02005574           OUTFALL      0.10     0.19     9.03     0  00:53        0.19
  YS02005578           OUTFALL      0.09     0.18     8.96     0  00:53        0.18
  WS02005134           OUTFALL      0.00     0.00     8.74     0  00:00        0.00
  YS02005581           OUTFALL      0.11     0.28     9.08     0  00:53        0.28
  YS02005584           OUTFALL      0.13     0.30     9.26     0  00:50        0.30
  YS02005593           OUTFALL      0.23     0.28     9.00     0  00:58        0.28
  YS02005596           OUTFALL      0.14     0.30     8.84     0  00:47        0.30
  YS02005374           OUTFALL      0.12     0.30     8.54     0  00:48        0.30
  YS02005375           OUTFALL      0.12     0.30     8.69     0  00:48        0.30
  YS02005607           OUTFALL      0.11     0.30     7.53     0  00:48        0.30
  YS02005610           OUTFALL      0.07     0.19     8.80     0  00:52        0.19
  YS02005613           OUTFALL      0.13     0.30     8.58     0  00:50        0.30
  HS02003172           OUTFALL      0.16     0.41     5.87     0  00:52        0.41
  YS6395               OUTFALL      0.10     0.23     6.65     0  00:53        0.23
  YS6405               OUTFALL      0.15     0.38     3.83     0  00:52        0.38
  WSC                  OUTFALL      0.58     0.80     5.00     0  00:43        0.80
  JiankangQianchi      STORAGE      2.89     4.21     5.01     0  00:51        4.16
  CaochengTiaoxuchi    STORAGE      0.87     1.22     6.72     0  01:04        1.22
  XierchiQianchi       STORAGE      7.03     7.47     5.47     0  02:02        7.47
  
  
  *******************
  Node Inflow Summary
  *******************
  
  -------------------------------------------------------------------------------------------------
                                  Maximum  Maximum                  Lateral       Total        Flow
                                  Lateral    Total  Time of Max      Inflow      Inflow     Balance
                                   Inflow   Inflow   Occurrence      Volume      Volume       Error
  Node                 Type           LPS      LPS  days hr:min    10^6 ltr    10^6 ltr     Percent
  -------------------------------------------------------------------------------------------------
  WS02001211           JUNCTION      7.35   218.53     0  01:21       0.054        1.19       4.216
  WS02001212           JUNCTION      0.00   231.91     0  01:21           0        1.14       2.398
  WS02001213           JUNCTION      0.00   242.95     0  01:21           0        1.12       3.239
  WS02003069           JUNCTION      0.32  2519.84     0  00:54     0.00235        9.94       0.703
  WS02003072           JUNCTION      0.00  2519.85     0  00:54           0        9.88       0.608
  WS02003073           JUNCTION      1.82  3087.48     0  00:54      0.0134        13.1       0.298
  WS02003076           JUNCTION      0.00  3087.49     0  00:54           0        13.1       0.318
  WS02003060           JUNCTION     16.53  2519.73     0  00:54       0.122          10       0.570
  WS02003066           JUNCTION      0.00  2335.75     0  00:53           0        8.87       0.113
  WS02003059           JUNCTION      0.00   249.11     0  01:21           0        1.09       5.292
  WS02003115           JUNCTION      0.00   477.10     0  01:02           0        0.95       0.542
  WS02003116           JUNCTION      0.00   240.81     0  00:29           0        1.06       0.776
  WS02003118           JUNCTION      0.09   215.27     0  00:37    2.69e-06        1.06       1.431
  WS02003215           JUNCTION      0.18  1718.91     0  00:52    2.05e-05        2.36       1.146
  WS02003110           JUNCTION      0.18   389.76     0  00:52     0.00132       0.521       1.443
  WS02003111           JUNCTION      1.49   868.07     0  00:52      0.0107        1.39       0.512
  WS02005155           JUNCTION      0.38   389.51     0  00:52      0.0028        0.52       1.880
  WS02005154           JUNCTION    389.09   389.09     0  00:52       0.518       0.519       1.140
  WS02005193           JUNCTION      0.00   127.07     0  00:32           0      0.0153     135.146
  WS02005196           JUNCTION      0.00    78.33     0  00:32           0     0.00579     636.464
  WS02003067           JUNCTION      0.00  1870.49     0  00:53           0        6.99       0.204
  WS02004401           JUNCTION      0.00  1105.54     0  01:30           0         5.7       0.548
  WS02004402           JUNCTION      0.00  1105.62     0  01:30           0        5.68       0.496
  WS02004403           JUNCTION      0.00  1105.32     0  01:31           0        5.66       0.427
  WS02004404           JUNCTION      0.16  1105.60     0  01:31     0.00119        5.64       0.293
  WS02004406           JUNCTION      0.00  1105.50     0  01:30           0        5.61       0.732
  WS02004409           JUNCTION      0.00  1827.46     0  00:51           0        7.79       0.450
  WS02004410           JUNCTION      0.00  1869.76     0  00:53           0        7.81       0.455
  WS02004411           JUNCTION      0.00  1870.16     0  00:53           0         7.1       0.484
  WS02004412           JUNCTION      0.00  1870.03     0  00:53           0        7.06       0.482
  WS02004413           JUNCTION      0.00  1870.27     0  00:53           0        7.03       0.621
  WS02004405           JUNCTION      0.15  1105.60     0  01:27     0.00036        5.62       0.433
  WS02006109           JUNCTION      1.90  1308.01     0  00:00     0.00962        6.35       0.349
  WS02006110           JUNCTION      0.23  1104.83     0  01:31    0.000104        5.81      -0.337
  WS02006111           JUNCTION      0.00  1176.04     0  00:00           0         5.8      -0.310
  WS02006112           JUNCTION      0.48  2307.30     0  00:00    2.66e-05        5.82       0.303
  WS02006113           JUNCTION      0.00  1104.97     0  01:31           0        5.79      -0.401
  WS02006115           JUNCTION      0.00  2155.86     0  00:00           0        5.75       0.570
  WS02006116           JUNCTION      0.28  1105.11     0  01:31    0.000297        5.72       0.458
  WS02006230           JUNCTION     10.40  1027.90     0  00:50      0.0756        3.12       0.522
  WS02006231           JUNCTION      0.49   453.28     0  01:30     0.00117        1.91       0.870
  WS02006232           JUNCTION      0.12   453.36     0  01:30    3.67e-05        1.93       0.930
  WS02006234           JUNCTION      0.08   453.14     0  01:08    2.36e-06        1.94       0.635
  WS02006235           JUNCTION      0.27   414.97     0  01:03    0.000464        2.04       0.536
  WS02006238           JUNCTION      0.00   415.45     0  01:32           0        2.04       0.369
  WS02006240           JUNCTION      0.00   414.97     0  01:32           0        2.07       0.797
  WS02006242           JUNCTION      0.24   414.87     0  01:32      0.0001        2.09       0.947
  WS02006243           JUNCTION      0.61   278.18     0  01:35     0.00114        1.59       1.017
  WS02006245           JUNCTION      0.00   280.94     0  00:29           0         1.6       0.836
  WS02006247           JUNCTION      0.00   291.73     0  00:30           0        1.62       0.741
  WS02006248           JUNCTION      0.00   344.75     0  00:41           0        1.94       0.572
  WS02006249           JUNCTION      0.10  1371.30     0  00:52    2.97e-06        5.25       0.319
  WS02006239           JUNCTION      0.00   414.94     0  01:10           0        2.05       0.620
  WS02006251           JUNCTION      0.08  1675.70     0  00:52    0.000566        5.41       0.336
  WS02006252           JUNCTION      0.00   683.74     0  00:53           0        2.17      -0.012
  WS02006253           JUNCTION     26.52  1675.52     0  00:52      0.0413        3.85       0.533
  WS02006256           JUNCTION      0.00   300.00     0  00:36           0        1.55       0.065
  WS02004138           JUNCTION      0.00   190.00     0  00:29           0        1.17       0.255
  WS02004139           JUNCTION      0.32   190.32     0  00:33     0.00236        1.17       3.505
  WS02004407           JUNCTION      0.00  1827.59     0  00:51           0        7.83       0.342
  WS02006228           JUNCTION      1.05  1289.56     0  00:50    0.000619        6.33       0.239
  WS02006229           JUNCTION      0.74  2307.37     0  00:51     0.00057        9.23       0.283
  WS02006280           JUNCTION      0.22  2307.15     0  00:50    0.000246        9.05       0.027
  WS02006284           JUNCTION      0.12  2306.98     0  00:50    0.000714        9.06       0.161
  WS02006287           JUNCTION      0.14  2307.20     0  00:51    3.85e-05        9.07       0.111
  WS02003091           JUNCTION      0.39  1194.64     0  00:00    0.000756        3.39      -1.198
  WS02003203           JUNCTION      0.32  2264.56     0  00:00    0.000134        5.13       0.214
  WS6145               JUNCTION      0.14   236.09     0  00:51    0.000175        0.09       0.369
  WS6147               JUNCTION      0.00   236.64     0  00:51           0      0.0791       0.234
  WS6150               JUNCTION      0.05   237.03     0  00:51    0.000365      0.0682       0.472
  WS6152               JUNCTION      0.58   239.53     0  00:51     0.00424      0.0573       0.709
  WS6155               JUNCTION      0.01   240.53     0  00:51    4.03e-05      0.0423       0.394
  WS6156               JUNCTION      0.71   236.72     0  00:51     0.00383      0.0312       0.366
  WS6136               JUNCTION      0.20   743.18     0  00:51    4.69e-05        1.33       0.062
  WS6140               JUNCTION      0.08   234.64     0  00:51     8.8e-05        0.11       0.119
  WS6142               JUNCTION      0.08   235.46     0  00:51    0.000107       0.101       0.207
  WS6325               JUNCTION      0.15   152.83     0  00:50    0.000153      0.0876       2.092
  WS6327               JUNCTION      0.05   152.93     0  00:50     0.00036      0.0781       0.178
  WS6329               JUNCTION      0.42   153.11     0  00:50     0.00177      0.0675       0.201
  WS6332               JUNCTION      0.29   153.26     0  00:50     0.00066      0.0547       0.168
  WS6158               JUNCTION      1.60   257.93     0  00:52      0.0118      0.0154      -0.694
  WS6335               JUNCTION      0.62   153.80     0  00:50     0.00345      0.0428       0.310
  WS6338               JUNCTION      0.26   153.97     0  00:50    0.000901       0.028       0.189
  WS6340               JUNCTION      0.20   154.53     0  00:50    0.000117      0.0155       0.021
  WS6342               JUNCTION      0.64   155.10     0  00:51     0.00312     0.00619      -1.795
  WS6135               JUNCTION      0.00   742.79     0  00:51           0        1.43       0.513
[...]
  WS02003201WS02003202        1.62      1.64      1.62      0.81         0.01
  WS02003200WS02003201        1.58      1.58      1.63      0.01         0.01
  WS02003198WS02003200        1.57      1.58      1.61      0.02         0.01
  WS02003196WS02003198        1.59      1.59      1.59      1.03         1.04
  WS02003195WS02003196        1.58      1.58      1.58      0.98         0.99
  WS02003193WS02003195        1.58      1.58      1.58      0.24         0.24
  WS02003188WS02003190        1.58      1.58      1.60      0.56         0.58
  WS02003187WS02003188        1.57      1.57      1.58      1.09         1.10
  WS02003202WS02003203        1.63      1.64      1.65      0.80         0.01
  WS02003190WS02003193        1.57      1.57      1.59      0.01         0.01
  WS02005155WS02003110        1.51      1.51      1.51      0.16         0.18
  WS02003203WS02003091        1.64      1.65      1.65      1.58         1.57
  WS02003091WS02003090        1.66      1.67      1.72      0.01         0.01
  WS02003090WS02003089        1.68      1.69      1.71      1.77         0.01
  WS02003089WS02003088        1.68      1.69      1.71      1.61         1.60
  WS02003088WS02003087        1.71      1.72      1.71      1.77         1.70
  WS02003087WS02003086        1.65      1.65      1.73      1.69         0.01
  WS02003086WS02003085        1.64      1.64      1.69      1.75         0.01
  WS02003085WS02003084        1.65      1.66      1.65      1.67         1.64
  WS02003084WS02003083        1.64      1.66      1.64      1.85         1.64
  WS02003083WS02003082        1.63      1.63      1.66      1.75         0.01
  WS02003082WS02003081        1.62      1.63      1.62      1.74         1.62
  WS02003081WS02003080        1.62      1.62      1.62      1.63         1.62
  WS02003080WS02003077        0.51      0.51      1.62      1.63         0.01
  WS02003073WS02003076        0.61      0.61      1.39      0.16         0.01
  HS02004901HS02004770        0.65      0.65      0.65      0.01         0.01
  HS02004876HS02004881        0.65      0.67      0.65      1.55         0.65
  HS02004870HS02004876        0.58      0.58      0.67      0.01         0.01
  HS02004049HS02004052        0.08      0.08      0.11      0.01         0.01
  HS02004048HS02004049        0.18      0.28      0.18      0.34         0.18
  HS02004046HS02004048        0.10      0.10      0.28      0.01         0.01
  HS02004043HS02004046        0.06      0.06      0.13      0.01         0.01
  HS02004041HS02004043        0.01      0.01      0.06      0.01         0.01
  HS02004028HS02004027        0.01      0.09      0.01      0.11         0.01
  HS02003143HS02003065        0.48      0.48      0.70      0.01         0.01
  HS02004842HS02004848        0.51      0.51      0.72      0.01         0.01
  HS02004837HS02004842        0.54      0.54      0.72      0.01         0.01
  HS02004830HS02004837        0.54      0.54      0.59      0.01         0.01
  HS02004824HS02004830        0.59      0.59      0.64      0.01         0.01
  HS02004817HS02004824        0.64      0.64      1.48      0.01         0.01
  HS02004770HS02004777        0.65      0.65      0.66      0.01         0.01
  HS02004799HS02004480        0.81      0.81      0.90      0.92         0.01
  HS02004792HS02004799        0.75      0.75      0.90      0.01         0.01
  HS02004788HS02004792        0.59      0.59      0.75      0.01         0.01
  HS02004785HS02004788        0.59      0.61      0.59      1.51         0.54
  HS02004777HS02004785        0.61      0.61      0.66      0.01         0.01
  HS02004480HS02004478        0.75      0.81      0.75      1.65         0.75
  HS02004479HS02004480        0.82      0.82      0.86      0.01         0.01
  HS02003013HS02003010        0.26      0.26      0.30      0.14         0.13
  HS02003010HS02003007        0.24      0.24      0.26      0.28         0.24
  HS02003007HS02003004        0.26      0.26      0.34      0.10         0.10
  HS02003004HS02003001        0.01      0.34      0.01      0.97         0.01
  HS02003065HS02003056        0.68      0.68      0.84      0.01         0.01
  HS02003042HS02003053        0.21      0.21      0.64      0.01         0.01
  HS02003028HS02003021        0.14      0.14      0.20      0.01         0.01
  HS02003021HS02003018        0.23      0.23      0.24      0.03         0.03
  HS02003018HS02003017        0.25      0.25      0.25      0.17         0.14
  HS02003017HS02003013        0.25      0.25      0.26      0.18         0.17
  HS02004862HS02004870        0.56      0.56      0.58      0.24         0.22
  HS02004848HS02004852        0.50      0.51      0.54      0.02         0.01
  HS02004856HS02004862        0.51      0.51      0.56      0.01         0.01
  HS02004852HS02004856        0.54      0.54      0.56      0.02         0.01
  HS02004024HS02004022        0.01      0.01      0.13      0.01         0.01
  HS02004022HS02004021        0.13      0.13      0.23      0.01         0.01
  HS02004021HS02004019        0.23      0.23      0.31      0.16         0.16
  HS02004019HS02003162        0.01      0.31      0.01      0.34         0.01
  HS02004052HS02004053        0.10      0.11      0.10      0.13         0.10
  HS02003122HS02003125        1.42      1.42      1.42      0.11         0.14
  HS02003119HS02003122        1.41      1.41      1.42      0.01         0.01
  HS02003116HS02003119        1.13      1.13      1.41      0.01         0.01
  HS02003111HS02003116        0.01      0.01      1.22      0.01         0.01
  HS02004018HS02004019        0.16      0.16      0.31      0.01         0.01
  HS02003056HS02003136        0.71      0.71      1.44      0.01         0.01
  HS02004017HS02004018        0.15      0.15      0.16      0.01         0.01
  HS02004013HS02004017        0.01      0.01      0.15      0.01         0.01
  HS02004802HS02004478        0.76      0.76      0.83      0.12         0.01
  HS02004478WS02006287        0.62      0.62      0.81      0.01         0.01
  HS02003148HS02003145        0.01      0.01      0.09      0.01         0.01
  HS02003145HS02003143        0.09      0.09      0.46      0.08         0.07
  HS02003136WS02003203        1.45      1.45      1.57      0.01         0.01
  HS02003108HS02003111        0.11      0.11      0.29      0.01         0.01
  HS02003100HS02003108        0.05      0.05      0.11      0.01         0.01
  HS02003088HS02003100        0.04      0.04      0.05      0.01         0.01
  HS02004817HS02004807        0.80      0.80      1.48      0.01         0.01
  HS02004807HS02004802        0.80      0.80      0.82      0.27         0.27
  HS02003053HS02003056        0.64      0.64      0.84      0.01         0.01
  HS02003039HS02003042        0.27      0.28      0.31      0.14         0.02
  HS02003036HS02003039        0.10      0.10      0.15      0.01         0.01
  YS02001759YS02001757        0.01      0.01      0.01      0.10         0.01
  YS02001762YS02001759        0.01      0.01      0.01      0.09         0.01
  YS02001770YS02001767        0.01      0.02      0.01      0.56         0.01
  YS02001774YS02001770        0.01      0.01      0.06      0.01         0.01
  YS02001779YS02001774        0.01      0.01      0.06      0.01         0.01
  YS02001767YS02001765        0.01      0.01      0.01      0.12         0.01
  YS02006561YS02001783        0.36      0.36      0.55      0.01         0.01
  YS02001783YS02001784        0.52      0.55      0.52      0.71         0.52
  YS02001784YS02001785        0.42      0.52      0.42      1.07         0.42
  YS02001790YS02001791        0.01      0.01      0.01      0.51         0.01
  YS02001910YS02001907        0.58      0.58      0.78      0.01         0.01
  YS02001786YS02001788        0.01      0.42      0.01      0.86         0.01
  YS02001915YS02001910        0.49      0.49      0.58      0.01         0.01
  YS02001918YS02001915        0.40      0.40      0.49      0.01         0.01
  YS02001923YS02001920        0.34      0.34      0.42      0.01         0.01
  YS02001926YS02001923        0.10      0.10      0.12      0.01         0.01
  YS02001929YS02001926        0.02      0.02      0.12      0.01         0.01
  YS02001932YS02001929        0.01      0.01      0.02      0.01         0.01
  YS02001935YS02001932        0.01      0.01      0.01      0.01         0.01
  YS02001920YS02001918        0.40      0.40      0.42      0.01         0.01
  YS02003290YS02003287        1.48      1.48      1.57      0.01         0.01
  YS02003294YS02003290        1.49      1.49      1.62      0.03         0.01
  YS02003297YS02003294        1.60      1.60      1.60      0.23         0.29
  YS02003275YS02003272        1.20      1.37      1.20      1.54         1.20
  YS02003300YS02003297        1.51      1.51      1.57      0.01         0.01
  YS02003303YS02003300        1.47      1.47      1.53      0.01         0.01
  YS02005582YS02005583        0.24      0.48      0.24      0.68         0.24
  YS02003272YS02003269        0.01      1.30      0.01      1.53         0.01
  YS02003278YS02003275        1.43      1.58      1.43      1.70         1.43
  YS02003281YS02003278        1.54      1.54      1.57      1.42         1.43
  YS02003284YS02003281        1.54      1.54      1.57      1.02         0.26
  YS02003287YS02003284        1.56      1.56      1.60      0.01         0.06
  YS02003306YS02003303        1.42      1.42      1.51      0.41         0.41
  YS02003309YS02003306        1.27      1.27      1.42      0.01         0.01
  YS02005600YS02005375        0.18      0.18      0.19      0.19         0.18
  YS02005384YS02005593        0.01      1.24      0.01      1.30         0.01
  YS02005595YS02005596        0.27      0.29      0.28      0.31         0.27
  YS02005612YS02005613        0.08      0.08      0.94      0.29         0.01
  YS02005553YS02005554        0.01      0.01      0.01      0.06         0.01
  YS02005556YS02005557        0.01      0.01      0.01      0.07         0.01
  YS02005562YS02005563        0.01      0.01      0.01      0.01         0.01
  YS02005571YS02005572        0.01      0.01      0.01      0.18         0.01
  YS02005579YS02005580        0.01      0.32      0.01      0.51         0.01
  YS02005580YS02005581        0.01      0.01      0.01      0.07         0.01
  YS02005583YS02005584        0.24      0.24      0.25      0.25         0.24
  YS02006553YS02006556        0.68      0.68      0.82      0.01         0.01
  YS02006556YS02006558        0.74      0.74      0.86      0.01         0.01
  YSB6556YSB1171              0.94      0.94      1.56      0.01         0.01
  YSB1202YSB1205              1.30      1.30      1.33      0.01         0.01
  YSB1205YSB1209              1.33      1.33      1.33      1.04         0.98
  YSB1209YSB1212              1.31      1.33      1.31      1.42         1.31
  YSB1212YSB1215              1.31      1.31      1.31      0.76         0.74
  YSB1215YSB1218              1.31      1.31      1.31      0.83         0.82
  YSB1218YSB1221              1.30      1.30      1.31      1.10         1.10
  YSB1221YSB1224              1.31      1.31      1.32      1.30         1.29
  YSB1224YSB1105              0.86      1.35      0.86      1.43         0.86
  YSB1189YSB1186              0.53      0.53      0.64      0.12         0.12
  YS02001907YS02006553        1.08      1.08      1.20      0.01         0.01
  YS02006562YS02006558        0.55      0.55      0.86      0.01         0.01
  YS02006558YS02006561        0.44      0.67      0.44      1.00         0.44
  YS6184YS6187                0.06      0.06      0.08      0.01         0.01
  YS6360YS6363                0.02      0.07      0.02      0.60         0.02
  YS6354YS6360                0.13      0.13      0.15      0.13         0.12
  YS6351YS6354                0.13      0.16      0.13      0.34         0.13
  YS6350YS6351                0.16      0.18      0.16      0.64         0.16
  YS6348YS6350                0.17      0.17      0.18      0.16         0.15
  YS6344YS6348                0.17      0.17      0.23      0.01         0.01
  YS6363YS6132                0.02      0.02      0.19      0.01         0.01
  YS6137YS6132                0.12      0.12      0.28      0.01         0.01
  YS6189YS6137                0.12      0.12      0.13      1.45         0.01
  YS6187YS6189                0.06      0.06      0.08      0.23         0.01
  YS6179YS6184                0.04      0.04      0.06      0.01         0.01
  YS6176YS6179                0.01      0.01      0.04      0.01         0.01
  YS6171YS6176                0.01      0.01      0.04      0.01         0.01
  YS6162YS6164                0.01      0.01      0.01      0.01         0.01
  YS6132YS6404                0.01      0.08      0.01      0.22         0.01
  YSB1106YSB1105              0.01      0.10      0.01      0.15         0.01
  YSB1109YSB1106              0.10      0.16      0.10      0.29         0.10
  YSB1112YSB1109              0.16      0.17      0.16      0.20         0.16
  YSB1115YSB1112              0.14      0.14      0.17      0.09         0.08
  YSB1118YSB1115              0.17      0.17      0.17      0.19         0.17
  YSB1121YSB1118              0.17      0.20      0.17      0.28         0.17
  YSB1124YSB1121              0.16      0.16      0.20      0.01         0.01
  YSB1105YSB1103              0.01      0.01      0.08      0.08         0.01
  YS02001882YS02001884        0.49      0.49      0.50      0.01         0.01
  YS02001884YS02001887        0.52      0.52      0.54      0.01         0.01
  YS02001890YS02001895        0.48      0.48      0.58      0.01         0.01
  YS02001895YS02001898        0.48      0.48      0.48      0.01         0.01
  YS02001898YS02001901        0.48      0.48      0.52      0.01         0.01
  YS02001901YS02001904        0.51      0.51      0.52      0.01         0.01
  YS02001904YS02001907        0.51      0.51      0.82      0.01         0.01
  YS02001887YS02001890        0.55      0.55      0.56      0.05         0.01
  YS02004309YS02004307        0.07      0.85      0.07      0.83         0.07
  YS02004319YS02004316        0.25      0.25      0.27      0.01         0.01
  YS02005376YS02005378        1.56      1.56      1.80      0.01         0.01
  YS02005378YS02005381        1.76      1.76      1.80      0.41         0.01
  YS02005381YS02005384        1.24      1.24      1.76      1.78         0.01
  YS02005598YS02005374        0.19      0.19      0.21      0.21         0.19
  YS02005602YS02005603        0.16      0.43      0.16      0.55         0.16
  YS02005603YS02005607        0.16      0.16      0.17      0.17         0.16
  YS02005624YS02005625        0.01      0.01      0.13      0.01         0.01
  YS02005636YS02005637        0.01      0.01      0.01      0.04         0.01
  YS02005627YS02005628        0.01      0.01      0.01      0.15         0.01
  YS02005650YS02005651        0.01      0.05      0.01      0.14         0.01
  YS02005653YS02005654        0.03      0.03      0.04      0.04         0.03
  YS02005654YS02005655        0.01      0.04      0.01      0.13         0.01
  YS02005661YS02005662        0.01      0.04      0.01      0.15         0.01
  YS02005664YS02005665        0.01      0.01      0.01      0.35         0.01
  YS02005667YS02005668        0.01      0.01      0.36      0.02         0.01
  YS02005647YS02005648        0.01      0.20      0.01      0.33         0.01
  YS02004312YS02004309        0.48      0.48      0.85      0.01         0.01
  YS02004314YS02004312        0.29      0.29      0.48      0.01         0.01
  YS02004316YS02004314        0.27      0.27      0.29      0.21         0.21
  YS02004320YS02004319        0.01      0.01      0.18      0.01         0.01
  YS6404YS6401                0.01      0.01      0.01      0.60         0.01
  YSB1132YSB1135              0.51      0.51      0.57      0.01         0.01
  YSB1135YSB1138              0.57      0.57      0.61      0.01         0.01
  YSB1138YSB1141              0.61      0.61      0.70      0.31         0.31
  YSB1141YSB1145              0.67      0.67      0.70      0.30         0.29
  YSB1148YSB1151              0.79      0.79      1.07      0.01         0.01
  YSB1151YSB1154              0.90      0.90      1.27      0.01         0.01
  YSB1154YSB6556              0.94      0.94      1.27      0.31         0.01
  YSB1128YSB1132              0.49      0.49      0.51      0.01         0.01
  YSB1145YSB1148              0.70      0.70      0.79      0.01         0.01
  YSB1198YSB1195              0.22      0.22      0.46      0.01         0.01
  YSB1195YSB1192              0.46      0.46      0.49      0.01         0.01
  YSB1192YSB1189              0.49      0.49      0.53      0.01         0.01
  YSB1186YSB1183              0.58      0.58      0.70      0.01         0.01
  YSB1183YSB1180              0.70      0.70      0.75      0.15         0.16
  YSB1180YSB1177              0.75      0.75      1.12      0.01         0.01
  YSB1177YSB1174              1.12      1.12      1.43      0.16         0.17
  YSB1174YSB1171              1.07      1.07      1.51      0.09         0.09
  YSB1171HS02004479           0.79      0.79      1.23      0.01         0.01
  YS02004307HS02004052        0.01      0.01      0.11      0.01         0.01
  HS02004881HS02006253        0.65      0.65      1.45      0.01         0.01
  WS0200404049WS6136          0.09      0.09      0.18      0.01         0.01
  HS02003125WS02003215        1.42      1.42      1.45      0.01         0.01
  YS02001793JiankangQianchi        0.01      0.01      2.03      0.01         0.01
  YS02001757CaochengTiaoxuchi        0.01      0.01      0.56      0.01         0.01
  WS02004041WS6409            1.04      1.04      1.14      1.14         1.04
  WSF200WS02003060            0.17      0.17      0.43      0.01         0.01
  HS02004053WS02004407        0.10      0.10      1.07      0.01         0.01
  HS02003036HS02003028        0.10      0.10      0.19      0.01         0.01
  
  
  ***************
  Pumping Summary
  ***************
  
  ---------------------------------------------------------------------------------------------------------
                                                  Min       Avg       Max     Total     Power    % Time Off
                        Percent   Number of      Flow      Flow      Flow    Volume     Usage    Pump Curve
  Pump                 Utilized   Start-Ups       LPS       LPS       LPS  10^6 ltr     Kw-hr    Low   High
  ---------------------------------------------------------------------------------------------------------
  CaochengSewagePump1     86.45           1      0.00    200.00    200.00     1.271      9.82    0.0    0.0
  CaochengSewagePump2     51.89           1      0.00    200.00    200.00     0.763      6.26    0.0    0.0
  CaochengRainPump1       46.92           1      0.00    683.00    683.00     2.356      2.87    0.0   51.7
  CaochengRainPump2        0.00           0      0.00      0.00      0.00     0.000      0.00    0.0    0.0
  JiankangSewagePump      70.29           1      0.00    300.00    300.00     1.550     24.20    0.0    0.0
  JiankangRainPump1       32.47           5      0.00   1000.00   1000.00     2.388     15.80    0.0    0.0
  JiankangRainPump2        0.00           0      0.00      0.00      0.00     0.000      0.00    0.0    0.0
  XierchiSewagePump1      91.82           1      0.00     95.00     95.00     0.641      3.96    0.0    0.0
  XierchiSewagePump2      76.32           1      0.00     95.00     95.00     0.533      3.12    0.0    0.0
  XierchiSewagePump3       0.00           0      0.00      0.00      0.00     0.000      0.00    0.0    0.0
  XierchiSewagePump4       0.00           0      0.00      0.00      0.00     0.000      0.00    0.0    0.0
  

  Analysis begun on:  Mon Oct 17 22:23:26 2022
  Analysis ended on:  Mon Oct 17 22:58:40 2022
  Total elapsed time: 00:35:14