
  EPA STORM WATER MANAGEMENT MODEL - VERSION 5.1 (Build 5.3.0.dev0)
  --------------------------------------------------------------

  WARNING 04: minimum elevation drop used for Conduit WS02004404WS02004405
  WARNING 03: negative offset ignored for Link YS02001904YS02001907
  
  *********************************************************
  NOTE: The summary statistics displayed in this report are
  based on results found at every computational time step,  
  not just on results from each reporting time step.
  *********************************************************
  
  ****************
  Analysis Options
  ****************
  Flow Units ............... LPS
  Process Models:
    Rainfall/Runoff ........ YES
    RDII ................... NO
    Snowmelt ............... NO
    Groundwater ............ NO
    Flow Routing ........... YES
    Ponding Allowed ........ NO
    Water Quality .......... NO
  Infiltration Method ...... HORTON
  Flow Routing Method ...... DYNWAVE
  Surcharge Method ......... EXTRAN
  Starting Date ............ 03/31/2017 00:00:00
  Ending Date .............. 03/31/2017 05:00:00
  Antecedent Dry Days ...... 8.0
  Report Time Step ......... 00:00:30
  Wet Time Step ............ 00:01:00
  Dry Time Step ............ 00:01:00
  Routing Time Step ........ 30.00 sec
  Variable Time Step ....... YES
  Maximum Trials ........... 8
  Number of Threads ........ 6
  Head Tolerance ........... 0.001500 m
  
  
  **************************        Volume         Depth
  Runoff Quantity Continuity     hectare-m            mm
  **************************     ---------       -------
  Total Precipitation ......        11.660        98.948
  Evaporation Loss .........         0.000         0.000
  Infiltration Loss ........         0.551         4.672
  Surface Runoff ...........        10.865        92.203
  Final Storage ............         0.248         2.101
  Continuity Error (%) .....        -0.029
  
  
  **************************        Volume        Volume
  Flow Routing Continuity        hectare-m      10^6 ltr
  **************************     ---------     ---------
  Dry Weather Inflow .......         0.342         3.416
  Wet Weather Inflow .......        10.865       108.647
  Groundwater Inflow .......         0.000         0.000
  RDII Inflow ..............         0.000         0.000
  External Inflow ..........         0.077         0.770
  External Outflow .........         6.554        65.542
  Flooding Loss ............         4.651        46.511
  Evaporation Loss .........         0.000         0.000
  Exfiltration Loss ........         0.000         0.000
  Initial Stored Volume ....         0.303         3.031
  Final Stored Volume ......         0.419         4.185
  Continuity Error (%) .....        -0.323
  
  
  *************************
  Highest Continuity Errors
  *************************
  Node HS02004036 (100.00%)
  Node YS02001884 (7.34%)
  Node YS02004320 (5.21%)
  Node YS6162 (4.28%)
  Node WS02003059 (1.35%)
  
  
  ***************************
  Time-Step Critical Elements
  ***************************
  Link WS02004041WS6409 (42.60%)
  Link YS02005655YS02005657 (24.61%)
  Link WS02006252WS02006251 (19.42%)
  Link WS02006280WS02006229 (1.07%)
  Link WS02003073WS02003076 (1.05%)
  
  
  ********************************
  Highest Flow Instability Indexes
  ********************************
  Link WS02006238WS02006235 (48)
  Link WS02003200WS02003201 (45)
  Link WS02003215WS02003116 (44)
  Link WS02003122WS02003187 (43)
  Link WS02003203WS02003091 (42)
  
  
  *************************
  Routing Time Step Summary
  *************************
  Minimum Time Step           :     0.50 sec
  Average Time Step           :     1.04 sec
  Maximum Time Step           :    30.00 sec
  Percent in Steady State     :    -0.00
  Average Iterations per Step :     4.84
  Percent Not Converging      :    24.70
  
  
  ***************************
  Subcatchment Runoff Summary
  ***************************
  
  ------------------------------------------------------------------------------------------------------------------------------
                            Total      Total      Total      Total     Imperv       Perv      Total       Total     Peak  Runoff
                           Precip      Runon       Evap      Infil     Runoff     Runoff     Runoff      Runoff   Runoff   Coeff
  Subcatchment                 mm         mm         mm         mm         mm         mm         mm    10^6 ltr      LPS
  ------------------------------------------------------------------------------------------------------------------------------
  sub0                      98.95       0.00       0.00       1.27      90.71       5.65      96.36        0.08    54.93   0.974
  sub1                      98.95       0.00       0.00       2.00      86.50       8.77      95.27        0.63   369.84   0.963
  sub2                      98.95       0.00       0.00       6.72      61.12      27.89      89.01        0.83   384.46   0.900
  sub3                      98.95       0.00       0.00       6.72      60.92      27.14      88.06        1.98   831.25   0.890
  sub4                      98.95       0.00       0.00       2.00      85.69       8.61      94.30        1.97   906.12   0.953
  sub5                      98.95       0.00       0.00       1.27      90.39       5.61      96.00        1.09   635.99   0.970
  sub6                      98.95       0.00       0.00       1.27      90.19       5.59      95.78        2.48  1353.88   0.968
  sub7                      98.95       0.00       0.00       1.63      88.64       7.23      95.86        0.32   208.26   0.969
  sub8                      98.95       0.00       0.00       1.63      88.57       7.21      95.79        0.61   379.69   0.968
  sub9                      98.95       0.00       0.00       1.63      88.56       7.21      95.77        0.46   283.30   0.968
  sub10                     98.95       0.00       0.00       1.45      89.46       6.41      95.87        1.06   628.31   0.969
  sub11                     98.95       0.00       0.00       1.45      89.57       6.42      95.99        1.12   701.03   0.970
  sub12                     98.95       0.00       0.00       2.36      84.82      10.43      95.25        0.83   567.54   0.963
  sub13                     98.95       0.00       0.00       6.17      64.25      26.49      90.74        1.08   601.40   0.917
  sub14                     98.95       0.00       0.00       1.63      88.55       7.21      95.76        0.91   556.63   0.968
  sub15                     98.95       0.00       0.00       5.45      68.09      23.38      91.48        1.57   871.76   0.925
  sub16                     98.95       0.00       0.00       5.99      65.30      26.01      91.31        0.96   586.40   0.923
  sub17                     98.95       0.00       0.00       5.81      66.26      25.20      91.46        0.78   475.45   0.924
  sub18                     98.95       0.00       0.00       1.63      88.67       7.23      95.91        0.76   504.95   0.969
  sub19                     98.95       0.00       0.00       5.63      67.22      24.39      91.61        0.29   174.35   0.926
  sub20                     98.95       0.00       0.00       1.63      88.63       7.22      95.85        0.67   429.75   0.969
  sub21                     98.95       0.00       0.00       2.18      85.77       9.63      95.39        0.48   323.42   0.964
  sub22                     98.95       0.00       0.00       7.81      55.50      33.14      88.64        5.60  2923.55   0.896
  sub23                     98.95       0.00       0.00       6.72      61.36      28.83      90.18        4.30  2407.06   0.911
  sub24                     98.95       0.00       0.00       2.54      83.80      11.21      95.01        3.41  2242.71   0.960
  sub25                     98.95       0.00       0.00       1.27      90.73       5.65      96.39        1.25   892.78   0.974
  sub26                     98.95       0.00       0.00       4.36      74.17      19.26      93.43        1.33   969.03   0.944
  sub27                     98.95       0.00       0.00       1.63      88.53       7.20      95.73        1.38   835.35   0.967
  sub28                     98.95       0.00       0.00       1.45      89.49       6.41      95.90        1.50   901.99   0.969
  sub29                     98.95       0.00       0.00       1.45      89.17       6.37      95.54        1.54   826.30   0.966
  sub30                     98.95       0.00       0.00       1.45      89.70       6.45      96.14        2.17  1481.39   0.972
  sub31                     98.95       0.00       0.00       3.09      80.95      13.63      94.58        2.01  1396.12   0.956
  sub32                     98.95       0.00       0.00       1.45      89.62       6.43      96.05        1.91  1239.54   0.971
  sub33                     98.95       0.00       0.00       2.36      84.83      10.44      95.27        1.74  1197.64   0.963
  sub34                     98.95       0.00       0.00       9.08      48.78      39.36      88.14        1.97  1194.43   0.891
  sub35                     98.95       0.00       0.00       1.44      89.81       6.48      96.28        0.33   266.09   0.973
  sub36                     98.95       0.00       0.00       3.99      76.10      17.64      93.74        0.81   579.75   0.947
  sub37                     98.95       0.00       0.00       7.08      59.53      31.09      90.62        0.69   476.95   0.916
  sub38                     98.95       0.00       0.00       6.35      63.44      28.02      91.46        1.73  1252.94   0.924
  sub39                     98.95       0.00       0.00       1.45      89.77       6.46      96.24        1.02   755.23   0.973
  sub40                     98.95       0.00       0.00       1.45      89.78       6.46      96.24        1.12   833.31   0.973
  sub41                     98.95       0.00       0.00       2.91      81.94      12.86      94.80        1.82  1294.72   0.958
  sub42                     98.95       0.00       0.00       1.63      88.79       7.27      96.06        0.97   704.70   0.971
  sub43                     98.95       0.00       0.00       6.90      60.46      29.96      90.42        0.74   456.63   0.914
  sub44                     98.95       0.00       0.00       1.27      90.48       5.62      96.10        1.09   658.60   0.971
  sub45                     98.95       0.00       0.00       3.09      80.81      13.53      94.34        1.73  1074.00   0.953
  sub46                     98.95       0.00       0.00      11.44      36.10      49.11      85.22        0.60   318.51   0.861
  sub47                     98.95       0.00       0.00       1.45      89.63       6.43      96.06        0.73   478.61   0.971
  sub48                     98.95       0.00       0.00       1.63      88.64       7.23      95.86        0.73   472.55   0.969
  sub49                     98.95       0.00       0.00       1.45      89.55       6.42      95.96        0.88   543.01   0.970
  sub50                     98.95       0.00       0.00       1.45      89.56       6.42      95.98        0.67   419.68   0.970
  sub51                     98.95       0.00       0.00       1.45      89.66       6.44      96.09        0.45   301.30   0.971
  sub52                     98.95       0.00       0.00       1.27      90.50       5.62      96.12        1.04   639.21   0.971
  sub53                     98.95       0.00       0.00       1.45      89.62       6.43      96.05        0.97   629.34   0.971
  sub54                     98.95       0.00       0.00       1.27      90.37       5.61      95.98        0.57   333.04   0.970
  sub55                     98.95       0.00       0.00       1.45      89.47       6.41      95.88        0.77   456.95   0.969
  sub56                     98.95       0.00       0.00       3.45      78.55      14.86      93.41        1.33   697.59   0.944
  sub57                     98.95       0.00       0.00       5.63      67.09      24.05      91.14        0.59   317.04   0.921
  sub58                     98.95       0.00       0.00      13.25      26.33      54.07      80.40        2.97  1099.21   0.813
  sub59                     98.95       0.00       0.00      13.98      22.42      54.25      76.67        1.76   538.82   0.775
  sub60                     98.95       0.00       0.00       2.18      85.70       9.60      95.30        1.25   796.62   0.963
  sub61                     98.95       0.00       0.00       3.09      80.85      13.55      94.41        1.73  1107.86   0.954
  sub62                     98.95       0.00       0.00       1.45      89.43       6.40      95.83        2.63  1542.00   0.968
  sub67                     98.95       0.00       0.00       1.45      89.48       6.41      95.88        1.78  1066.20   0.969
  sub68                     98.95       0.00       0.00       2.54      83.68      11.15      94.84        2.61  1581.54   0.958
  sub71                     98.95       0.00       0.00       1.45      89.21       6.38      95.58        2.50  1359.61   0.966
  sub72                     98.95       0.00       0.00       1.27      89.88       5.56      95.44        1.31   657.35   0.965
  sub73                     98.95       0.00       0.00       3.81      77.08      16.85      93.92        0.09    65.59   0.949
  sub74                     98.95       0.00       0.00       5.81      66.34      25.51      91.85        0.15   101.43   0.928
  sub75                     98.95       0.00       0.00       5.45      68.30      23.98      92.29        0.20   143.63   0.933
  sub76                     98.95       0.00       0.00       3.27      79.99      14.44      94.43        0.23   162.08   0.954
  sub77                     98.95       0.00       0.00       3.09      80.98      13.66      94.64        0.15   107.64   0.956
  sub78                     98.95       0.00       0.00       2.36      84.82      10.43      95.25        0.26   178.04   0.963
  sub79                     98.95       0.00       0.00       4.36      74.09      19.10      93.18        0.24   157.66   0.942
  sub80                     98.95       0.00       0.00       5.99      65.36      26.25      91.61        0.27   180.72   0.926
  sub81                     98.95       0.00       0.00       6.72      61.44      29.25      90.69        0.28   176.67   0.917
  sub82                     98.95       0.00       0.00       6.72      61.45      29.34      90.79        0.27   178.93   0.918
  sub83                     98.95       0.00       0.00       6.90      60.49      30.19      90.68        0.31   203.94   0.916
  sub84                     98.95       0.00       0.00       6.35      63.37      27.62      91.00        0.49   308.46   0.920
  sub85                     98.95       0.00       0.00       4.36      74.07      19.08      93.15        0.41   268.07   0.941
  sub86                     98.95       0.00       0.00       4.72      72.14      20.67      92.81        0.45   292.61   0.938
  sub87                     98.95       0.00       0.00       6.35      63.40      27.76      91.16        0.27   179.33   0.921
  sub88                     98.95       0.00       0.00       6.17      64.38      27.01      91.39        0.28   185.49   0.924
  sub89                     98.95       0.00       0.00       5.63      67.32      24.76      92.08        0.24   171.12   0.931
  sub90                     98.95       0.00       0.00       4.90      71.21      21.57      92.78        0.23   158.30   0.938
  sub91                     98.95       0.00       0.00       4.90      71.24      21.66      92.90        0.17   123.06   0.939
  sub92                     98.95       0.00       0.00       5.63      67.35      24.90      92.25        0.14   104.93   0.932
  sub93                     98.95       0.00       0.00       5.63      67.35      24.91      92.27        0.17   127.89   0.932
  sub94                     98.95       0.00       0.00       5.63      67.34      24.83      92.17        0.20   144.46   0.931
  sub95                     98.95       0.00       0.00       5.27      69.30      23.27      92.57        0.14   103.50   0.935
  sub96                     98.95       0.00       0.00       3.99      76.14      17.75      93.89        0.17   138.02   0.949
  sub97                     98.95       0.00       0.00      11.08      38.08      48.95      87.02        0.20   153.28   0.879
  sub98                     98.95       0.00       0.00      13.07      27.33      56.77      84.10        0.27   156.58   0.850
  sub99                     98.95       0.00       0.00      14.34      20.50      61.04      81.54        0.29   127.67   0.824
  sub100                    98.95       0.00       0.00      14.34      20.49      60.03      80.53        0.28   110.20   0.814
  sub101                    98.95       0.00       0.00      14.34      20.49      59.92      80.42        0.27   104.74   0.813
  sub102                    98.95       0.00       0.00      13.80      23.41      56.86      80.27        0.24    89.47   0.811
  sub103                    98.95       0.00       0.00      14.16      21.46      57.84      79.31        0.38   131.57   0.801
  sub104                    98.95       0.00       0.00      14.16      21.46      57.59      79.05        0.41   142.26   0.799
  sub105                    98.95       0.00       0.00      14.71      18.54      59.77      78.31        0.45   146.82   0.791
  sub106                    98.95       0.00       0.00      14.34      20.49      59.28      79.77        0.41   148.18   0.806
  sub107                    98.95       0.00       0.00      14.71      18.54      61.56      80.10        0.57   217.21   0.810
  sub108                    98.95       0.00       0.00      14.89      17.57      63.49      81.06        0.75   335.17   0.819
  sub109                    98.95       0.00       0.00      11.62      35.13      49.98      85.11        1.21   654.19   0.860
  sub110                    98.95       0.00       0.00       3.27      79.93      14.39      94.32        1.98  1325.98   0.953
  sub111                    98.95       0.00       0.00       4.72      72.15      20.69      92.85        0.80   528.37   0.938
  sub112                    98.95       0.00       0.00       3.81      77.03      16.78      93.81        0.74   501.73   0.948
  sub113                    98.95       0.00       0.00       2.54      83.85      11.23      95.08        0.66   449.01   0.961
  sub114                    98.95       0.00       0.00       2.36      84.83      10.44      95.27        0.63   432.63   0.963
  sub115                    98.95       0.00       0.00       2.18      85.79       9.64      95.43        0.70   478.19   0.964
  sub116                    98.95       0.00       0.00       7.26      58.50      31.42      89.92        0.17   100.48   0.909
  sub117                    98.95       0.00       0.00       7.44      57.54      32.33      89.87        0.41   255.62   0.908
  
  
  ******************
  Node Depth Summary
  ******************
  
  ---------------------------------------------------------------------------------
                                 Average  Maximum  Maximum  Time of Max    Reported
                                   Depth    Depth      HGL   Occurrence   Max Depth
  Node                 Type       Meters   Meters   Meters  days hr:min      Meters
  ---------------------------------------------------------------------------------
  WS02001211           JUNCTION     0.90     2.23     7.07     0  01:11        1.78
  WS02001212           JUNCTION     0.65     1.90     6.97     0  01:11        1.55
  WS02001213           JUNCTION     0.91     2.15     6.91     0  01:11        1.85
  WS02003069           JUNCTION     0.84     1.69     6.28     0  01:16        1.68
  WS02003072           JUNCTION     0.93     1.59     5.96     0  01:16        1.58
  WS02003073           JUNCTION     1.16     1.71     5.77     0  01:16        1.70
  WS02003076           JUNCTION     0.90     1.36     5.58     0  01:16        1.36
  WS02003060           JUNCTION     0.72     1.68     6.61     0  01:16        1.67
  WS02003066           JUNCTION     0.44     1.16     6.72     0  01:15        1.16
  WS02003059           JUNCTION     0.97     1.93     6.61     0  01:15        1.92
  WS02003115           JUNCTION     1.62     2.74     9.61     0  00:53        2.73
  WS02003116           JUNCTION     1.75     2.94     9.65     0  01:31        2.93
  WS02003118           JUNCTION     1.73     2.90     9.52     0  01:10        2.90
  WS02003215           JUNCTION     1.63     2.80     9.66     0  00:53        2.80
  WS02003110           JUNCTION     1.31     2.36     9.61     0  01:16        2.35
  WS02003111           JUNCTION     1.42     2.35     9.44     0  00:53        2.35
  WS02005155           JUNCTION     1.29     2.47     9.78     0  01:16        2.46
  WS02005154           JUNCTION     1.08     2.37    10.00     0  01:16        2.36
  WS02005193           JUNCTION     1.04     3.19    11.01     0  01:10        3.01
  WS02005196           JUNCTION     1.02     3.31    11.16     0  01:10        2.98
  WS02003067           JUNCTION     0.79     1.48     6.80     0  01:16        1.48
  WS02004401           JUNCTION     1.26     2.52     8.52     0  01:14        2.46
  WS02004402           JUNCTION     1.26     2.53     8.49     0  01:14        2.47
  WS02004403           JUNCTION     1.26     2.53     8.46     0  01:14        2.46
  WS02004404           JUNCTION     1.31     2.58     8.43     0  01:14        2.53
  WS02004406           JUNCTION     1.26     2.54     8.37     0  01:14        2.49
  WS02004409           JUNCTION     1.02     2.34     8.11     0  01:14        2.30
  WS02004410           JUNCTION     0.96     2.10     7.82     0  01:15        2.09
  WS02004411           JUNCTION     0.91     1.88     7.56     0  01:15        1.88
  WS02004412           JUNCTION     0.86     1.65     7.29     0  01:15        1.63
  WS02004413           JUNCTION     0.94     1.55     7.02     0  01:16        1.55
  WS02004405           JUNCTION     1.29     2.56     8.41     0  01:14        2.51
  WS02006109           JUNCTION     1.61     2.64     9.26     0  01:08        2.64
  WS02006110           JUNCTION     1.46     2.49     9.07     0  01:22        2.48
  WS02006111           JUNCTION     0.89     2.00     8.70     0  01:22        1.99
  WS02006112           JUNCTION     1.53     2.68     8.56     0  00:00        2.68
  WS02006113           JUNCTION     0.97     2.00     8.89     0  01:14        1.99
  WS02006115           JUNCTION     1.21     2.42     8.55     0  01:14        2.38
  WS02006116           JUNCTION     1.27     2.50     8.54     0  01:14        2.45
  WS02006230           JUNCTION     1.68     2.65     9.39     0  01:03        2.65
  WS02006231           JUNCTION     1.32     2.19     9.31     0  01:27        2.19
  WS02006232           JUNCTION     1.39     2.18     9.22     0  01:03        2.18
  WS02006234           JUNCTION     1.25     1.96     9.12     0  01:01        1.96
  WS02006235           JUNCTION     1.24     1.93     9.10     0  02:10        1.93
  WS02006238           JUNCTION     1.25     1.94     9.08     0  01:46        1.93
  WS02006240           JUNCTION     1.08     1.63     8.92     0  01:51        1.62
  WS02006242           JUNCTION     1.08     1.55     8.82     0  00:44        1.55
  WS02006243           JUNCTION     0.93     1.39     8.81     0  00:44        1.36
  WS02006245           JUNCTION     0.87     1.29     8.78     0  00:44        1.27
  WS02006247           JUNCTION     0.86     1.24     8.74     0  00:44        1.22
  WS02006248           JUNCTION     0.78     1.10     8.69     0  00:44        1.10
  WS02006249           JUNCTION     0.79     1.09     8.69     0  00:44        1.09
  WS02006239           JUNCTION     1.17     1.79     9.00     0  01:23        1.78
  WS02006251           JUNCTION     1.03     2.21     9.88     0  01:10        2.17
  WS02006252           JUNCTION     0.65     1.50     9.74     0  01:10        1.50
  WS02006253           JUNCTION     1.21     3.19    10.84     0  01:16        3.18
  WS02006256           JUNCTION     1.72     2.35     9.28     0  00:19        2.35
  WS02004138           JUNCTION     0.13     0.14     7.39     0  00:33        0.14
  WS02004139           JUNCTION     0.83     2.21     7.12     0  01:11        1.71
  WS02004407           JUNCTION     0.64     2.07     8.39     0  01:14        1.96
  WS02006228           JUNCTION     1.77     3.03     9.68     0  01:10        3.03
  WS02006229           JUNCTION     1.84     3.23     9.92     0  01:10        3.22
  WS02006280           JUNCTION     0.66     1.75    10.02     0  01:10        1.74
  WS02006284           JUNCTION     0.90     1.95    10.35     0  01:20        1.94
  WS02006287           JUNCTION     0.64     1.74    10.70     0  01:14        1.74
  WS02003091           JUNCTION     2.26     4.11     9.91     0  00:00        3.91
  WS02003203           JUNCTION     2.21     3.83     9.82     0  01:02        3.83
  WS6145               JUNCTION     0.30     2.45    10.55     0  01:14        2.29
  WS6147               JUNCTION     0.24     2.30    10.57     0  01:14        2.15
  WS6150               JUNCTION     0.25     2.25    10.58     0  01:14        2.11
  WS6152               JUNCTION     0.26     2.20    10.54     0  01:14        2.13
  WS6155               JUNCTION     0.22     2.10    10.50     0  01:14        2.10
  WS6156               JUNCTION     0.21     2.05    10.52     0  01:14        2.05
  WS6136               JUNCTION     0.26     1.90    10.85     0  01:15        1.90
  WS6140               JUNCTION     0.31     2.47    10.40     0  01:15        2.44
  WS6142               JUNCTION     0.29     2.34    10.42     0  01:15        2.30
  WS6325               JUNCTION     0.47     2.74    10.39     0  01:15        2.72
  WS6327               JUNCTION     0.36     2.58    10.40     0  01:16        2.56
  WS6329               JUNCTION     0.33     2.52    10.41     0  01:16        2.49
  WS6332               JUNCTION     0.29     2.53    10.56     0  01:13        2.35
  WS6158               JUNCTION     0.20     2.05    10.59     0  01:14        2.05
  WS6335               JUNCTION     0.29     2.60    10.67     0  01:13        2.31
  WS6338               JUNCTION     0.25     2.55    10.75     0  01:13        2.18
  WS6340               JUNCTION     0.22     2.50    10.84     0  01:13        2.04
  WS6342               JUNCTION     0.18     2.50    11.10     0  01:13        1.78
  WS6135               JUNCTION     0.62     2.89    10.39     0  01:15        2.88
  WS6396               JUNCTION     0.39     2.02     9.57     0  01:16        2.00
  WS6399               JUNCTION     0.24     1.37     8.80     0  01:15        1.35
  WS02003082           JUNCTION     1.16     1.93     7.00     0  01:16        1.92
  WS02003077           JUNCTION     0.39     0.84     5.85     0  01:16        0.84
  WS02003080           JUNCTION     0.79     1.30     6.24     0  01:15        1.30
  WS02003083           JUNCTION     1.48     2.41     7.44     0  01:21        2.41
  WS02003084           JUNCTION     1.58     2.60     7.70     0  01:23        2.60
  WS02003085           JUNCTION     1.63     2.72     7.89     0  01:25        2.71
  WS02003086           JUNCTION     1.83     3.02     8.23     0  01:25        3.01
  WS02003087           JUNCTION     2.05     3.36     8.57     0  01:16        3.35
  WS02003088           JUNCTION     2.19     4.14     9.43     0  00:00        4.07
  WS02003089           JUNCTION     2.26     4.34     9.80     0  00:00        4.02
  WS02003090           JUNCTION     2.44     4.05     9.49     0  01:24        4.05
  WS02003081           JUNCTION     0.95     1.61     6.66     0  01:16        1.60
  WS02003122           JUNCTION     1.92     3.11     9.48     0  01:29        3.10
  WS02003187           JUNCTION     1.94     3.11     9.44     0  01:10        3.11
  WS02003188           JUNCTION     1.94     2.97     9.23     0  01:10        2.97
  WS02003190           JUNCTION     1.95     2.84     9.04     0  00:50        2.84
  WS02003193           JUNCTION     1.92     2.85     9.09     0  00:50        2.85
  WS02003195           JUNCTION     1.92     2.93     9.18     0  00:50        2.93
  WS02003196           JUNCTION     2.00     3.13     9.31     0  01:15        3.12
  WS02003198           JUNCTION     2.01     3.22     9.40     0  01:16        3.22
  WS02003200           JUNCTION     1.74     2.97     9.40     0  00:50        2.93
  WS02003201           JUNCTION     1.98     3.22     9.36     0  00:50        3.22
  WS02003202           JUNCTION     2.08     4.17    10.23     0  00:00        3.48
  WS02004041           JUNCTION     0.58     0.98     5.34     0  01:16        0.98
  WSA6400              JUNCTION     0.89     2.43     8.27     0  01:15        2.41
  WS6400               JUNCTION     0.33     1.69     8.35     0  01:15        1.68
  WSF208               JUNCTION     0.61     1.95     8.04     0  01:14        1.94
  WSF207               JUNCTION     0.51     1.70     7.83     0  01:14        1.68
  WSF206               JUNCTION     0.59     1.74     7.67     0  01:14        1.73
  WSF205               JUNCTION     0.55     1.61     7.52     0  01:15        1.60
  WSF204               JUNCTION     1.14     2.17     7.33     0  01:16        2.16
  WSF203               JUNCTION     0.54     1.37     7.08     0  01:15        1.36
  WSF202               JUNCTION     0.47     1.20     6.92     0  01:15        1.19
  WSF201               JUNCTION     0.41     1.04     6.77     0  01:15        1.03
  WSF200               JUNCTION     0.54     1.45     6.69     0  01:15        1.45
  HS02004901           JUNCTION     0.53     1.42    11.24     0  01:07        1.42
  HS02004881           JUNCTION     0.37     2.15    11.18     0  01:10        1.92
  HS02004876           JUNCTION     0.48     2.17    11.20     0  01:16        2.16
  HS02004870           JUNCTION     0.39     2.10    11.39     0  01:10        2.04
  HS02004862           JUNCTION     0.40     2.00    11.38     0  01:10        2.00
  HS02004856           JUNCTION     0.44     2.07    11.50     0  01:10        2.03
  HS02004852           JUNCTION     0.38     2.12    11.63     0  01:10        1.97
  HS02004848           JUNCTION     0.36     2.07    11.67     0  01:10        1.91
  HS02004842           JUNCTION     0.68     2.22    11.49     0  01:10        2.22
  HS02004837           JUNCTION     0.39     2.01    11.59     0  01:10        1.92
  HS02004830           JUNCTION     0.44     2.03    11.50     0  01:10        1.99
  HS02004824           JUNCTION     0.46     2.01    11.41     0  01:10        2.01
  HS02004817           JUNCTION     0.94     2.42    11.27     0  01:10        2.41
  HS02004807           JUNCTION     0.62     1.92    11.09     0  01:10        1.92
  HS02004802           JUNCTION     0.64     1.80    10.93     0  01:14        1.80
  HS02004799           JUNCTION     0.70     1.76    10.97     0  01:10        1.76
  HS02004792           JUNCTION     0.51     1.60    11.12     0  01:08        1.60
  HS02004788           JUNCTION     0.38     1.42    11.32     0  01:08        1.42
  HS02004785           JUNCTION     0.43     1.49    11.39     0  01:08        1.40
  HS02004777           JUNCTION     0.55     1.48    11.28     0  01:07        1.46
  HS02004770           JUNCTION     0.52     1.42    11.25     0  01:07        1.42
  HS02004480           JUNCTION     0.62     1.68    10.92     0  01:10        1.64
  HS02004479           JUNCTION     0.66     1.69    10.90     0  01:10        1.67
  HS02004478           JUNCTION     0.53     1.59    10.82     0  01:14        1.59
  HS02004053           JUNCTION     0.21     1.90    10.67     0  01:14        1.09
  HS02004052           JUNCTION     0.26     1.50    11.15     0  01:13        1.39
  HS02004049           JUNCTION     0.16     1.00    11.69     0  01:14        0.86
  HS02004048           JUNCTION     0.35     1.70    12.60     0  01:13        1.70
  HS02004046           JUNCTION     0.39     1.80    13.52     0  01:15        1.80
  HS02004043           JUNCTION     0.19     2.24    14.93     0  01:16        2.23
  HS02004041           JUNCTION     0.11     1.99    17.43     0  01:16        1.23
  HS02004038           JUNCTION     0.10     0.41    19.09     0  01:17        0.40
  HS02004036           JUNCTION     0.00     0.00    22.47     0  01:30        0.00
  HS02004034           JUNCTION     0.00     0.00    26.84     0  01:26        0.00
  HS02004028           JUNCTION     0.14     0.51    37.36     0  01:13        0.51
  HS02004027           JUNCTION     0.11     0.34    36.46     0  01:13        0.34
  HS02004026           JUNCTION     0.11     0.35    35.75     0  01:13        0.34
  HS02004024           JUNCTION     0.12     0.41    34.63     0  01:13        0.40
  HS02004022           JUNCTION     0.16     0.80    33.84     0  01:12        0.80
  HS02004021           JUNCTION     0.19     0.81    32.54     0  01:10        0.81
  HS02004019           JUNCTION     0.24     0.80    31.76     0  01:08        0.80
  HS02004018           JUNCTION     0.16     0.60    33.81     0  01:12        0.60
  HS02004017           JUNCTION     0.15     0.53    34.37     0  01:12        0.53
  HS02004013           JUNCTION     0.10     0.72    35.86     0  01:15        0.72
  HS02004010           JUNCTION     0.04     0.19    38.06     0  01:17        0.19
  HS02003174           JUNCTION     0.14     0.49     6.03     0  01:18        0.49
  HS02003171           JUNCTION     0.15     0.54     6.23     0  01:17        0.54
  HS02003170           JUNCTION     0.19     0.50     6.96     0  01:17        0.50
  HS02003168           JUNCTION     0.09     0.34     6.83     0  01:17        0.34
  HS02003166           JUNCTION     0.18     0.51     6.98     0  01:17        0.51
  HS02003162           JUNCTION     0.16     0.42    30.67     0  01:09        0.42
  HS02003160           JUNCTION     0.12     0.39    28.45     0  01:16        0.39
  HS02003150           JUNCTION     0.12     0.42    26.44     0  01:16        0.42
  HS02003148           JUNCTION     0.14     0.54    22.28     0  01:16        0.54
  HS02003145           JUNCTION     0.18     0.81    14.68     0  01:13        0.81
  HS02003143           JUNCTION     0.26     0.80    13.27     0  01:05        0.80
  HS02003138           JUNCTION     0.35     0.64     7.13     0  02:10        0.64
  HS02003136           JUNCTION     1.02     2.28    10.00     0  00:00        2.28
  HS02003125           JUNCTION     1.21     2.37     9.82     0  00:53        2.30
  HS02003122           JUNCTION     1.26     2.43     9.87     0  01:17        2.43
  HS02003119           JUNCTION     1.05     2.33    10.04     0  00:53        2.25
  HS02003116           JUNCTION     0.78     2.27    10.40     0  00:53        1.87
  HS02003111           JUNCTION     0.43     0.99    10.00     0  01:17        0.98
  HS02003108           JUNCTION     0.34     1.05    10.17     0  01:16        0.99
  HS02003100           JUNCTION     0.22     1.06    10.29     0  01:16        0.95
  HS02003088           JUNCTION     0.17     1.11    10.40     0  01:16        0.97
  HS02003084           JUNCTION     0.06     1.08    10.51     0  01:16        0.87
  HS02003079           JUNCTION     0.04     1.04    10.55     0  01:16        0.79
  HS02003077           JUNCTION     0.01     0.61    10.34     0  01:17        0.61
  HS02003065           JUNCTION     0.47     1.67    10.90     0  01:17        1.67
  HS02003056           JUNCTION     0.47     1.77    10.71     0  01:16        1.76
  HS02003053           JUNCTION     0.32     1.66    10.96     0  01:12        1.66
  HS02003042           JUNCTION     0.23     1.69    11.35     0  01:12        1.43
  HS02003039           JUNCTION     0.27     1.88    11.53     0  01:12        1.51
  HS02003036           JUNCTION     0.14     1.41    11.47     0  01:12        1.28
  HS02003028           JUNCTION     0.22     1.40    11.14     0  01:12        1.40
  HS02003021           JUNCTION     0.24     1.55    10.92     0  01:12        1.49
  HS02003018           JUNCTION     0.24     1.48    10.69     0  01:12        1.48
  HS02003017           JUNCTION     0.25     1.48    10.64     0  01:12        1.48
  HS02003013           JUNCTION     0.24     1.47    10.52     0  01:12        1.42
  HS02003010           JUNCTION     0.26     1.45    10.25     0  01:12        1.30
  HS02003007           JUNCTION     0.23     1.32     9.93     0  01:12        1.09
  HS02003004           JUNCTION     0.30     1.05     9.37     0  01:12        0.98
  HS02003001           JUNCTION     0.08     0.31     8.61     0  01:17        0.31
  YS02001738           JUNCTION     0.00     0.00     8.89     0  00:00        0.00
  YS02001739           JUNCTION     0.00     0.00     8.37     0  00:00        0.00
  YS02001742           JUNCTION     0.00     0.00     8.49     0  00:00        0.00
  YS02001745           JUNCTION     0.11     0.53     8.04     0  01:17        0.53
  YS02001748           JUNCTION     0.14     1.02     8.09     0  01:17        1.01
  YS02001751           JUNCTION     0.15     2.20     9.08     0  01:17        1.16
  YS02001754           JUNCTION     0.17     2.20     8.81     0  01:16        1.36
  YS02001762           JUNCTION     0.32     2.15     8.55     0  01:15        1.80
  YS02001765           JUNCTION     0.31     2.10     8.55     0  01:15        1.80
  YS02001767           JUNCTION     0.33     2.03     8.52     0  01:15        1.83
  YS02001770           JUNCTION     0.38     1.95     8.44     0  01:15        1.95
  YS02001774           JUNCTION     0.45     2.02     8.44     0  01:16        2.00
  YS02001779           JUNCTION     0.21     1.68     8.37     0  01:15        1.68
  YS02001882           JUNCTION     0.58     1.76     8.47     0  01:09        1.67
  YS02001884           JUNCTION     0.67     1.83     8.45     0  01:09        1.76
  YS02001759           JUNCTION     0.32     2.21     8.57     0  01:15        1.79
  YS02001887           JUNCTION     0.75     1.86     8.40     0  01:09        1.85
  YS02001890           JUNCTION     0.78     1.81     8.32     0  01:09        1.81
  YS02001898           JUNCTION     0.54     1.56     8.30     0  01:18        1.56
  YS02001901           JUNCTION     0.65     1.68     8.29     0  01:20        1.67
  YS02001904           JUNCTION     0.63     1.64     8.27     0  01:11        1.63
  YS02001907           JUNCTION     0.96     1.96     8.25     0  01:11        1.96
  YS02001910           JUNCTION     0.77     2.02     8.52     0  01:16        2.01
  YS02001915           JUNCTION     0.60     2.00     8.72     0  01:16        2.00
  YS02001918           JUNCTION     0.36     1.81     8.88     0  01:13        1.70
  YS02001920           JUNCTION     0.45     2.10     9.11     0  01:17        1.79
  YS02001923           JUNCTION     0.30     2.01     9.27     0  01:17        1.55
  YS02001926           JUNCTION     0.33     1.90     9.35     0  01:13        1.40
  YS02001929           JUNCTION     0.22     1.78     9.47     0  01:13        1.18
  YS02001932           JUNCTION     0.13     1.77     9.57     0  01:17        1.11
  YS02001935           JUNCTION     0.10     1.75     9.68     0  01:17        0.96
  YS02001757           JUNCTION     0.30     2.10     8.36     0  01:16        1.64
  YS02001895           JUNCTION     0.54     1.57     8.31     0  01:26        1.57
  YS02005679           JUNCTION     0.00     0.00    10.24     0  00:00        0.00
  YS02005559           JUNCTION     0.07     0.22    10.17     0  01:18        0.22
  YS02005651           JUNCTION     0.05     0.19    10.96     0  01:17        0.19
  YS02005670           JUNCTION     0.05     0.21    10.67     0  01:17        0.21
  YS02005547           JUNCTION     0.04     0.15    10.69     0  01:16        0.15
  YS02005549           JUNCTION     0.05     0.24    11.15     0  01:16        0.23
  YS02005550           JUNCTION     0.07     0.35    10.98     0  01:17        0.32
  YS02005551           JUNCTION     0.04     0.15    10.52     0  01:16        0.15
  YS02005553           JUNCTION     0.09     0.29    10.65     0  01:16        0.29
  YS02005554           JUNCTION     0.05     0.14    10.38     0  01:16        0.14
  YS02005556           JUNCTION     0.09     0.27    10.33     0  01:22        0.27
  YS02005557           JUNCTION     0.05     0.14    10.11     0  01:16        0.14
  YS02005560           JUNCTION     0.06     0.16     9.90     0  01:18        0.16
  YS02005562           JUNCTION     0.09     0.25     9.99     0  01:18        0.25
  YS02005563           JUNCTION     0.05     0.14     9.80     0  01:18        0.14
  YS02005565           JUNCTION     0.08     0.22     9.93     0  01:18        0.22
  YS02005566           JUNCTION     0.07     0.18     9.57     0  01:18        0.18
  YS02005568           JUNCTION     0.10     0.36     9.86     0  01:16        0.35
  YS02005569           JUNCTION     0.08     0.21     9.53     0  01:18        0.21
  YS02005598           JUNCTION     0.15     1.07    10.91     0  01:12        1.07
  YS02005600           JUNCTION     0.14     1.02    10.68     0  01:12        1.02
  YS02005602           JUNCTION     0.31     2.15    10.43     0  01:13        2.15
  YS02005603           JUNCTION     0.11     1.15     9.27     0  01:13        0.58
  YS02005609           JUNCTION     0.06     0.23     9.12     0  01:17        0.23
  YS02005653           JUNCTION     0.09     0.87    11.84     0  01:16        0.87
  YS02005654           JUNCTION     0.10     0.65    11.40     0  01:17        0.64
  YS02005655           JUNCTION     0.04     0.15    10.78     0  01:17        0.15
  YS02005595           JUNCTION     0.22     1.36    11.04     0  01:10        1.36
  YS02005658           JUNCTION     0.08     0.54    11.44     0  01:15        0.46
  YS02005659           JUNCTION     0.04     0.15    10.81     0  01:17        0.15
  YS02005661           JUNCTION     0.10     0.65    11.36     0  01:16        0.65
  YS02005662           JUNCTION     0.04     0.14    10.76     0  01:17        0.14
  YS02005664           JUNCTION     0.10     0.59    11.17     0  01:17        0.58
  YS02005665           JUNCTION     0.03     0.12    10.69     0  01:17        0.12
  YS02005668           JUNCTION     0.04     0.14    10.31     0  01:17        0.14
  YS02005667           JUNCTION     0.25     0.87    10.89     0  01:16        0.87
  YS02005571           JUNCTION     0.12     0.44     9.93     0  01:18        0.44
  YS02005572           JUNCTION     0.08     0.24     9.59     0  01:18        0.24
  YS02005576           JUNCTION     0.09     0.27    10.03     0  01:18        0.27
  YS02005577           JUNCTION     0.08     0.23     9.71     0  01:18        0.22
  YS02005579           JUNCTION     0.20     1.12    10.74     0  01:15        1.12
  YS02005580           JUNCTION     0.12     0.94    10.47     0  01:15        0.69
  YS02005582           JUNCTION     0.21     0.86    10.94     0  01:14        0.86
  YS02005583           JUNCTION     0.11     0.69    10.68     0  01:14        0.41
  YS02005612           JUNCTION     0.35     1.59     9.72     0  01:15        1.59
  YS02005615           JUNCTION     0.04     0.15    11.64     0  01:16        0.15
  YS02005616           JUNCTION     0.03     0.12    10.94     0  01:16        0.12
  YS02005618           JUNCTION     0.06     0.24    11.10     0  01:16        0.24
  YS02005619           JUNCTION     0.04     0.14    10.69     0  01:16        0.14
  YS02005621           JUNCTION     0.06     0.28    11.39     0  01:16        0.28
  YS02005622           JUNCTION     0.03     0.12    11.08     0  01:16        0.11
  YS02005625           JUNCTION     0.03     0.10    11.12     0  01:16        0.10
  YS02005627           JUNCTION     0.08     0.44    11.37     0  01:15        0.39
  YS02005628           JUNCTION     0.03     0.11    11.01     0  01:16        0.11
  YS02005630           JUNCTION     0.07     0.47    11.55     0  01:15        0.40
  YS02005631           JUNCTION     0.03     0.13    11.00     0  01:17        0.13
  YS02005633           JUNCTION     0.07     0.49    11.62     0  01:15        0.38
  YS02005634           JUNCTION     0.04     0.14    10.98     0  01:17        0.14
  YS02005636           JUNCTION     0.08     0.53    11.53     0  01:17        0.52
  YS02005637           JUNCTION     0.04     0.16    10.92     0  01:17        0.16
  YS02005639           JUNCTION     0.07     0.48    11.11     0  01:15        0.41
  YS02005640           JUNCTION     0.04     0.16    10.49     0  01:17        0.16
  YS02005642           JUNCTION     0.06     0.23    11.05     0  01:17        0.23
  YS02005644           JUNCTION     0.11     0.87    11.98     0  01:15        0.87
  YS02005645           JUNCTION     0.06     0.22    11.03     0  01:16        0.22
  YS02005647           JUNCTION     0.16     1.03    11.92     0  01:15        1.03
  YS02005648           JUNCTION     0.06     0.23    11.02     0  01:15        0.23
  YS02005650           JUNCTION     0.10     0.76    11.65     0  01:16        0.75
  YS02005671           JUNCTION     0.03     0.10    10.33     0  01:17        0.10
  YS02005673           JUNCTION     0.06     0.23    10.58     0  01:17        0.23
  YS02005674           JUNCTION     0.04     0.14    10.04     0  01:17        0.14
  YS02005676           JUNCTION     0.00     0.00    10.24     0  00:00        0.00
  YS02005680           JUNCTION     0.04     0.14    10.24     0  01:17        0.14
  YS02005682           JUNCTION     0.00     0.00    10.06     0  00:00        0.00
  YS02005683           JUNCTION     0.02     0.09     9.98     0  01:17        0.09
  YS02005376           JUNCTION     0.49     1.01    11.10     0  00:52        1.01
  YS02005378           JUNCTION     0.96     1.62    11.15     0  00:52        1.62
  YS02005381           JUNCTION     0.84     1.57    11.20     0  00:52        1.57
  YS02005624           JUNCTION     0.19     0.51    11.39     0  01:16        0.50
  YS02005384           JUNCTION     0.27     1.30    10.95     0  00:52        0.53
  YS02005677           JUNCTION     0.04     0.16    10.24     0  01:17        0.16
  YSB1105              JUNCTION     0.22     0.54    10.02     0  01:18        0.54
  YSB1106              JUNCTION     0.19     1.64    11.48     0  01:15        0.77
  YSB1109              JUNCTION     0.24     1.63    11.57     0  01:15        1.09
  YSB1112              JUNCTION     0.24     1.64    11.77     0  01:15        1.32
  YSB1115              JUNCTION     0.22     1.90    12.20     0  01:14        1.30
  YSB1118              JUNCTION     0.23     1.80    12.34     0  01:14        1.45
  YSB1121              JUNCTION     0.28     1.70    12.37     0  01:14        1.70
  YSB1124              JUNCTION     0.16     1.60    12.43     0  01:14        1.55
  YSB1128              JUNCTION     0.28     1.85    12.43     0  01:08        1.85
  YSB1132              JUNCTION     0.31     1.90    12.35     0  01:08        1.85
  YSB1228              JUNCTION     0.04     0.17    11.01     0  01:16        0.16
  YSB1202              JUNCTION     0.59     1.50    12.39     0  01:06        1.46
  YSB1135              JUNCTION     0.39     2.00    12.26     0  01:08        1.92
  YSB1138              JUNCTION     0.47     1.90    12.07     0  01:08        1.90
  YSB1141              JUNCTION     0.50     2.00    11.82     0  01:08        1.90
  YSB1145              JUNCTION     0.50     1.99    11.68     0  01:08        1.88
  YSB1148              JUNCTION     0.54     2.00    11.50     0  01:08        1.90
  YSB1151              JUNCTION     0.72     2.08    11.31     0  01:08        2.00
  YSB1154              JUNCTION     0.87     2.10    11.16     0  01:08        2.10
  YSB1198              JUNCTION     0.13     1.60    12.39     0  01:10        1.18
  YSB1192              JUNCTION     0.25     1.90    12.17     0  01:09        1.69
  YSB6556              JUNCTION     0.72     1.80    10.97     0  01:08        1.80
  YSB1205              JUNCTION     0.75     1.65    12.35     0  01:06        1.65
  YSB1209              JUNCTION     0.75     1.65    12.22     0  01:13        1.65
  YSB1212              JUNCTION     0.67     1.60    12.13     0  01:13        1.60
  YSB1215              JUNCTION     0.68     1.69    12.04     0  01:14        1.69
  YSB1218              JUNCTION     0.69     1.75    11.94     0  01:13        1.75
  YSB1221              JUNCTION     0.67     1.58    11.55     0  01:26        1.58
  YSB1224              JUNCTION     0.61     1.33    11.18     0  01:32        1.33
  YSB1195              JUNCTION     0.22     1.90    12.28     0  01:09        1.59
  YSB1189              JUNCTION     0.33     1.80    11.96     0  01:09        1.80
  YSB1186              JUNCTION     0.37     1.95    11.82     0  01:09        1.74
  YSB1183              JUNCTION     0.46     2.05    11.64     0  01:09        1.88
  YSB1180              JUNCTION     0.47     1.95    11.46     0  01:09        1.83
  YSB1177              JUNCTION     0.72     2.05    11.24     0  01:09        2.02
  YSB1174              JUNCTION     0.78     1.95    11.06     0  01:14        1.95
  YSB1171              JUNCTION     0.96     1.95    10.85     0  01:08        1.95
  YS02006553           JUNCTION     0.96     2.01     8.29     0  01:11        1.99
  YS02006561           JUNCTION     0.30     1.26     7.92     0  01:11        0.92
  YS02006562           JUNCTION     0.73     1.84     8.35     0  01:11        1.80
  YS02006556           JUNCTION     0.93     2.02     8.33     0  01:11        1.98
  YS02006558           JUNCTION     0.97     2.07     8.34     0  01:11        2.04
  YS6132               JUNCTION     0.42     2.70    10.02     0  01:24        1.65
  YS6137               JUNCTION     0.21     2.35    10.15     0  01:23        1.34
  YS6189               JUNCTION     0.30     2.43    10.22     0  01:23        1.61
  YS6184               JUNCTION     0.29     2.45    10.34     0  01:16        1.81
  YS6179               JUNCTION     0.25     2.58    10.56     0  01:16        1.78
  YS6176               JUNCTION     0.18     2.40    10.60     0  01:16        1.60
  YS6171               JUNCTION     0.20     2.10    10.51     0  01:16        1.70
  YS6168               JUNCTION     0.21     2.00    10.51     0  01:16        2.00
  YS6164               JUNCTION     0.07     1.90    10.63     0  01:16        1.90
  YS6162               JUNCTION     0.13     2.10    10.75     0  01:16        2.05
  YS6187               JUNCTION     0.34     2.41    10.19     0  01:23        1.70
  YS6363               JUNCTION     0.25     2.93    10.72     0  01:23        1.64
  YS6360               JUNCTION     0.34     2.62    10.42     0  01:23        1.80
  YS6354               JUNCTION     0.32     2.51    10.66     0  01:23        1.98
  YS6351               JUNCTION     0.38     2.50    10.71     0  01:23        2.20
  YS6350               JUNCTION     0.43     2.50    10.72     0  01:16        2.39
  YS6348               JUNCTION     0.38     2.45    10.85     0  01:14        2.45
  YS6344               JUNCTION     0.23     2.28    10.88     0  01:14        2.26
  YS6375               JUNCTION     0.06     0.35     8.77     0  01:17        0.35
  YS6377               JUNCTION     0.11     0.41     8.77     0  01:17        0.41
  YS6381               JUNCTION     0.13     0.48     8.61     0  01:17        0.48
  YS6386               JUNCTION     0.15     0.56     8.54     0  01:17        0.56
  YS6390               JUNCTION     0.36     0.67     8.36     0  01:17        0.67
  YS6394               JUNCTION     0.08     0.28     8.20     0  01:17        0.28
  YS6404               JUNCTION     0.40     3.00    10.23     0  01:22        1.22
  YS6401               JUNCTION     0.13     0.42     7.63     0  01:17        0.41
  YS02004319           JUNCTION     0.21     1.18    20.80     0  01:09        1.18
  YS02004320           JUNCTION     0.00     0.00    22.64     0  01:30        0.00
  YS02004321           JUNCTION     0.00     0.00    26.80     0  01:21        0.00
  YS02004307           JUNCTION     0.12     0.52    11.05     0  01:15        0.52
  YS02004309           JUNCTION     0.50     1.55    13.07     0  01:00        1.55
  YS02004312           JUNCTION     0.32     1.48    14.91     0  01:07        1.48
  YS02004314           JUNCTION     0.24     1.28    16.99     0  01:08        1.28
  YS02004316           JUNCTION     0.25     1.36    19.13     0  01:08        1.36
  YS02001783           JUNCTION     0.47     1.49     7.63     0  01:11        1.25
  YS02001784           JUNCTION     0.47     1.26     7.33     0  01:11        1.12
  YS02001786           JUNCTION     0.39     0.97     7.00     0  01:11        0.88
  YS02001788           JUNCTION     0.28     0.62     6.60     0  01:14        0.62
  YS02001790           JUNCTION     0.33     0.72     6.37     0  01:24        0.72
  YS02001791           JUNCTION     0.21     0.44     5.91     0  01:17        0.43
  YS02001793           JUNCTION     0.11     0.28     5.11     0  01:35        0.27
  YS02003309           JUNCTION     0.41     1.21     9.77     0  00:49        1.04
  YS02003306           JUNCTION     0.49     1.16     9.60     0  00:49        1.16
  YS02003269           JUNCTION     0.11     0.17     7.76     0  01:10        0.17
  YS02003272           JUNCTION     0.29     0.83     8.56     0  00:50        0.59
  YS02003278           JUNCTION     0.55     1.21     9.13     0  01:24        1.21
  YS02003281           JUNCTION     0.58     1.39     9.47     0  01:10        1.39
  YS02003284           JUNCTION     0.66     1.40     9.41     0  01:10        1.40
  YS02003287           JUNCTION     0.62     1.27     9.34     0  01:00        1.27
  YS02003290           JUNCTION     0.50     1.12     9.40     0  01:25        1.10
  YS02003294           JUNCTION     0.64     1.24     9.42     0  00:50        1.24
  YS02003275           JUNCTION     0.41     0.92     8.83     0  01:18        0.91
  YS02003297           JUNCTION     0.62     1.22     9.43     0  00:50        1.22
  YS02003300           JUNCTION     0.57     1.15     9.42     0  00:49        1.15
  YS02003303           JUNCTION     0.55     1.14     9.46     0  00:49        1.14
  YSB1227              JUNCTION     0.01     0.11    11.01     0  01:16        0.11
  CaochengRainPumpOutfall1 OUTFALL      0.00     0.00     6.00     0  00:00        0.00
  JiankangRainPumpOutfall2 OUTFALL      0.00     0.00     6.00     0  00:00        0.00
  JiankangRainPumpOutfall1 OUTFALL      0.00     0.00     6.00     0  00:00        0.00
  CaochengRainPumpOutfall2 OUTFALL      0.00     0.00     6.00     0  00:00        0.00
  YS02005684           OUTFALL      0.02     0.09     8.49     0  01:17        0.09
  YS02005681           OUTFALL      0.04     0.14     9.36     0  01:17        0.14
  YS02005678           OUTFALL      0.04     0.16     8.69     0  01:17        0.16
  YS02005675           OUTFALL      0.04     0.14     8.68     0  01:17        0.14
  YS02005672           OUTFALL      0.03     0.10     8.44     0  01:17        0.10
  YS02005669           OUTFALL      0.04     0.14     8.86     0  01:17        0.14
  YS02005666           OUTFALL      0.03     0.12     8.80     0  01:17        0.12
  YS02005663           OUTFALL      0.04     0.14     8.87     0  01:17        0.14
  YS02005660           OUTFALL      0.04     0.15     8.97     0  01:17        0.15
  YS02005657           OUTFALL      0.00     0.00     8.74     0  00:00        0.00
  YS02005652           OUTFALL      0.05     0.19     8.81     0  01:17        0.19
  YS02005649           OUTFALL      0.06     0.23     8.93     0  01:15        0.23
  YS02005646           OUTFALL      0.06     0.22     8.22     0  01:16        0.22
  YS02005643           OUTFALL      0.06     0.22     8.78     0  01:17        0.22
  YS02005641           OUTFALL      0.04     0.16     8.86     0  01:17        0.16
  YS02005638           OUTFALL      0.04     0.16     8.82     0  01:17        0.16
  YS02005635           OUTFALL      0.04     0.14     8.80     0  01:17        0.14
  YS02005632           OUTFALL      0.03     0.13     8.69     0  01:17        0.13
  YS02005629           OUTFALL      0.03     0.11     8.59     0  01:16        0.11
  YS02005626           OUTFALL      0.03     0.10     8.62     0  01:16        0.10
  YS02005623           OUTFALL      0.03     0.11     8.59     0  01:16        0.11
  YS02005620           OUTFALL      0.04     0.14     8.93     0  01:16        0.14
  YS02005617           OUTFALL      0.03     0.12     8.96     0  01:16        0.12
  YSB1103              OUTFALL      0.22     0.60     8.60     0  01:15        0.60
  YSB1229              OUTFALL      0.04     0.16     8.96     0  01:16        0.16
  YS02005548           OUTFALL      0.04     0.15     9.15     0  01:16        0.15
  YS02005552           OUTFALL      0.04     0.15     8.77     0  01:16        0.15
  YS02005555           OUTFALL      0.05     0.14     8.87     0  01:16        0.14
  YS02005558           OUTFALL      0.05     0.14     8.84     0  01:16        0.14
  YS02005561           OUTFALL      0.06     0.16     8.84     0  01:18        0.16
  YS02005564           OUTFALL      0.05     0.14     8.62     0  01:18        0.14
  YS02005567           OUTFALL      0.07     0.18     8.72     0  01:18        0.18
  YS02005570           OUTFALL      0.08     0.21     8.93     0  01:18        0.21
  YS02005574           OUTFALL      0.08     0.24     9.08     0  01:18        0.24
  YS02005578           OUTFALL      0.08     0.23     9.00     0  01:18        0.22
  WS02005134           OUTFALL      0.00     0.00     8.74     0  00:00        0.00
  YS02005581           OUTFALL      0.10     0.30     9.10     0  01:15        0.30
  YS02005584           OUTFALL      0.10     0.30     9.26     0  01:13        0.30
  YS02005593           OUTFALL      0.19     0.28     9.00     0  01:09        0.28
  YS02005596           OUTFALL      0.11     0.30     8.84     0  01:10        0.30
  YS02005374           OUTFALL      0.09     0.30     8.54     0  01:11        0.30
  YS02005375           OUTFALL      0.09     0.30     8.69     0  01:12        0.30
  YS02005607           OUTFALL      0.09     0.30     7.53     0  01:12        0.30
  YS02005610           OUTFALL      0.06     0.23     8.84     0  01:17        0.23
  YS02005613           OUTFALL      0.10     0.30     8.58     0  01:14        0.30
  HS02003172           OUTFALL      0.14     0.49     5.94     0  01:18        0.49
  YS6395               OUTFALL      0.08     0.28     6.70     0  01:17        0.28
  YS6405               OUTFALL      0.13     0.41     3.86     0  01:17        0.40
  WSC                  OUTFALL      0.54     0.80     5.00     0  01:00        0.80
  JiankangQianchi      STORAGE      2.66     4.21     5.01     0  01:11        4.16
  CaochengTiaoxuchi    STORAGE      0.82     1.40     6.90     0  01:28        1.40
  XierchiQianchi       STORAGE      7.35     8.08     6.08     0  04:04        8.08
  
  
  *******************
  Node Inflow Summary
  *******************
  
  -------------------------------------------------------------------------------------------------
                                  Maximum  Maximum                  Lateral       Total        Flow
                                  Lateral    Total  Time of Max      Inflow      Inflow     Balance
                                   Inflow   Inflow   Occurrence      Volume      Volume       Error
  Node                 Type           LPS      LPS  days hr:min    10^6 ltr    10^6 ltr     Percent
  -------------------------------------------------------------------------------------------------
  WS02001211           JUNCTION      7.35   219.93     0  01:10       0.108        2.65       1.260
  WS02001212           JUNCTION      0.00   230.82     0  01:52           0        2.61       0.600
  WS02001213           JUNCTION      0.00   241.53     0  01:52           0         2.6       0.758
  WS02003069           JUNCTION      0.32  2520.30     0  01:16     0.00469        17.8       0.128
  WS02003072           JUNCTION      0.00  2520.41     0  01:16           0        17.7       0.146
  WS02003073           JUNCTION      1.82  3089.05     0  01:16      0.0267        23.5       0.059
  WS02003076           JUNCTION      0.00  3089.15     0  01:16           0        23.4       0.092
  WS02003060           JUNCTION     16.53  2520.36     0  01:16       0.242        17.8       0.119
  WS02003066           JUNCTION      0.00  2303.92     0  01:16           0          15       0.021
  WS02003059           JUNCTION      0.00   247.53     0  01:52           0        2.59       1.365
  WS02003115           JUNCTION      0.00   477.11     0  01:31           0        1.33      -0.015
  WS02003116           JUNCTION      0.00   231.70     0  03:09           0         1.7       0.021
  WS02003118           JUNCTION      0.11   231.62     0  03:10    3.24e-06         1.7       0.036
  WS02003215           JUNCTION      0.19  2509.98     0  01:17    2.16e-05         3.8      -0.030
  WS02003110           JUNCTION      0.18   478.72     0  01:17     0.00264       0.729      -0.012
  WS02003111           JUNCTION      1.52   957.18     0  01:17      0.0214        1.91      -0.016
  WS02005155           JUNCTION      0.38   478.57     0  01:17     0.00559       0.716       0.005
  WS02005154           JUNCTION    478.19   478.19     0  01:17       0.702       0.704       0.071
  WS02005193           JUNCTION      0.50    58.16     0  00:42     0.00132      0.0243       0.207
  WS02005196           JUNCTION      1.03    40.49     0  00:42      0.0029     0.00863       2.178
  WS02003067           JUNCTION      0.00  1874.04     0  01:15           0        12.3       0.056
  WS02004401           JUNCTION      0.00  1106.68     0  02:02           0          10       0.158
  WS02004402           JUNCTION      0.00  1106.91     0  02:02           0          10       0.157
  WS02004403           JUNCTION      0.00  1106.94     0  02:02           0          10       0.142
  WS02004404           JUNCTION      0.16  1107.60     0  02:02     0.00237        9.99       0.111
  WS02004406           JUNCTION      0.00  1107.72     0  02:03           0        9.98       0.278
  WS02004409           JUNCTION      0.23  1822.07     0  01:14    0.000637        13.2       0.072
  WS02004410           JUNCTION      0.00  1873.59     0  01:15           0        13.3       0.090
  WS02004411           JUNCTION      0.00  1873.77     0  01:15           0        12.3       0.104
  WS02004412           JUNCTION      0.00  1873.89     0  01:15           0        12.3       0.120
  WS02004413           JUNCTION      0.00  1873.81     0  01:15           0        12.3       0.185
  WS02004405           JUNCTION      0.19  1107.71     0  02:02     0.00105        9.99       0.166
  WS02006109           JUNCTION      1.95  1308.01     0  00:00      0.0193        10.9       0.135
  WS02006110           JUNCTION      0.37  1106.71     0  02:02    0.000314        10.1      -0.302
  WS02006111           JUNCTION      0.04  1176.04     0  00:00    1.19e-05        10.1      -0.360
  WS02006112           JUNCTION      0.48  2307.30     0  00:00    2.58e-05        10.1       0.059
  WS02006113           JUNCTION      0.09  1106.80     0  02:02    5.43e-05        10.1      -0.415
  WS02006115           JUNCTION      0.00  2155.39     0  00:00           0          10       0.096
  WS02006116           JUNCTION      0.37  1107.02     0  02:02     0.00131          10       0.071
  WS02006230           JUNCTION     11.35  1027.03     0  01:14       0.153        5.01       0.086
  WS02006231           JUNCTION      1.44   453.35     0  01:32     0.00627        3.38       0.097
  WS02006232           JUNCTION      1.35   453.47     0  01:34     0.00421        3.38       0.234
  WS02006234           JUNCTION      1.03   453.34     0  01:32      0.0036        3.37       0.024
  WS02006235           JUNCTION      1.42   415.11     0  02:06     0.00749         3.5       0.110
  WS02006238           JUNCTION      1.81   415.33     0  02:07     0.00857        2.96       0.005
  WS02006240           JUNCTION      0.00   414.85     0  01:17           0        2.94       0.060
  WS02006242           JUNCTION      2.21   414.92     0  02:07       0.011        2.94       0.140
  WS02006243           JUNCTION      2.43   278.16     0  02:16      0.0129        2.31       0.023
  WS02006245           JUNCTION      2.51   278.23     0  02:12     0.00984        2.31       0.171
  WS02006247           JUNCTION      0.00   278.34     0  02:11           0         2.3       0.067
  WS02006248           JUNCTION      2.95   339.12     0  02:16     0.00928        2.74       0.030
  WS02006249           JUNCTION      0.04  1387.92     0  01:17    1.36e-06        6.38       0.055
  WS02006239           JUNCTION      1.75   414.98     0  01:09     0.00812        2.95      -0.012
  WS02006251           JUNCTION      1.83  1744.59     0  01:17     0.00808        6.66       0.005
  WS02006252           JUNCTION      0.00   756.71     0  01:17           0        2.29      -0.031
  WS02006253           JUNCTION     54.93  1744.53     0  01:17      0.0818         5.3       0.031
  WS02006256           JUNCTION      0.00   300.00     0  00:44           0        2.75      -0.013
  WS02004138           JUNCTION      0.00   190.00     0  00:29           0        2.56       0.116
  WS02004139           JUNCTION      0.32   190.32     0  00:33     0.00471        2.57       1.048
  WS02004407           JUNCTION      0.09  1822.03     0  01:14    0.000273        13.2       0.052
  WS02006228           JUNCTION      1.25  1288.81     0  01:14     0.00169        10.8       0.087
  WS02006229           JUNCTION      2.02  2305.86     0  01:14      0.0044        14.4       0.064
  WS02006280           JUNCTION      0.25  2305.36     0  01:14    0.000914        12.9       0.004
  WS02006284           JUNCTION      0.18  2305.25     0  01:14     0.00145          13       0.016
  WS02006287           JUNCTION      0.20  2305.61     0  01:14    0.000101          13       0.013
  WS02003091           JUNCTION      0.51  1118.54     0  00:00     0.00139        5.68      -0.824
  WS02003203           JUNCTION      0.33  2264.56     0  00:00    0.000138        7.83      -0.142
  WS6145               JUNCTION      0.30   229.24     0  01:13    0.000999       0.111       0.305
  WS6147               JUNCTION      0.00   228.99     0  01:14           0      0.0998       0.195
  WS6150               JUNCTION      0.20   229.22     0  01:14     0.00131       0.089       0.344
  WS6152               JUNCTION      0.58   237.99     0  01:13     0.00845      0.0772       0.534
  WS6155               JUNCTION      0.01   232.24     0  01:14    8.03e-05      0.0581       0.387
  WS6156               JUNCTION      0.72   235.78     0  01:14     0.00763      0.0469       0.305
  WS6136               JUNCTION      0.21   716.05     0  01:13    5.22e-05        1.87      -0.001
  WS6140               JUNCTION      0.22   229.83     0  01:13    0.000261       0.132       0.089
  WS6142               JUNCTION      0.23   229.65     0  01:13    0.000346       0.122       0.175
  WS6325               JUNCTION      0.23   126.18     0  01:12    0.000376      0.0981       0.115
  WS6327               JUNCTION      0.19   121.83     0  01:13     0.00103      0.0892       0.131
  WS6329               JUNCTION      0.55   122.17     0  01:13     0.00374      0.0783       0.174
  WS6332               JUNCTION      0.38   122.07     0  01:13      0.0016      0.0638       0.162
  WS6158               JUNCTION      1.80   250.86     0  01:14       0.024      0.0287      -0.624
  WS6335               JUNCTION      0.71   122.16     0  01:13     0.00732      0.0511       0.318
  WS6338               JUNCTION      0.43   121.39     0  01:13     0.00222      0.0325       0.146
  WS6340               JUNCTION      0.28   125.13     0  01:13    0.000374      0.0187       0.100
  WS6342               JUNCTION      0.64   133.00     0  01:13      0.0062     0.00923      -0.834
  WS6135               JUNCTION      0.12   715.70     0  01:13    3.16e-05        1.99       0.110
  WS6396               JUNCTION      0.00   547.50     0  01:25           0         1.9       0.031
  WS6399               JUNCTION      0.06   547.47     0  01:25    0.000193         1.9       0.009
  WS02003082           JUNCTION      0.51   590.24     0  01:04     0.00293        5.72       0.138
  WS02003077           JUNCTION      0.60   590.74     0  01:04      0.0088        5.71       0.041
  WS02003080           JUNCTION      0.00   590.22     0  01:04           0        5.71       0.032
  WS02003083           JUNCTION      0.00   590.11     0  01:05           0        5.72       0.032
  WS02003084           JUNCTION      0.04   590.17     0  01:05    0.000645        5.72       0.054
  WS02003085           JUNCTION      0.00   590.10     0  01:05           0        5.72      -0.024
  WS02003086           JUNCTION      0.49   661.65     0  00:01      0.0072        5.72       0.082
  WS02003087           JUNCTION      0.00  1080.52     0  00:00           0        5.72       0.048
  WS02003088           JUNCTION      0.55  2146.84     0  00:00       0.003        5.75       0.096
  WS02003089           JUNCTION      0.26  1590.77     0  00:00    0.000701        5.72      -0.333
  WS02003090           JUNCTION      0.42  1213.33     0  00:00    0.000919        5.69      -0.548
  WS02003081           JUNCTION      0.16   590.16     0  01:04    6.32e-05        5.71       0.117
  WS02003122           JUNCTION      0.00   231.64     0  03:10           0        1.69       0.091
  WS02003187           JUNCTION    658.60   835.58     0  01:17        1.09        2.75       0.131
  WS02003188           JUNCTION      0.51   403.50     0  01:25     0.00191        2.47       0.135
  WS02003190           JUNCTION      0.41   608.65     0  01:24    0.000498         3.5       0.172
  WS02003193           JUNCTION   1074.00  1337.65     0  01:17        1.73        3.47       0.195
  WS02003195           JUNCTION      0.33   300.96     0  00:01     0.00137        1.98       0.231
  WS02003196           JUNCTION      0.00   365.00     0  00:01           0        1.98       0.259
  WS02003198           JUNCTION    318.51   446.60     0  00:01       0.597        2.09       0.346
  WS02003200           JUNCTION      4.23   619.32     0  00:01      0.0574        1.62      -1.355
  WS02003201           JUNCTION      0.14   610.89     0  00:01    0.000171        2.95      -0.548
  WS02003202           JUNCTION      0.04   709.13     0  00:00    0.000167        2.95       0.107
  WS02004041           JUNCTION      0.50  3089.87     0  01:16     0.00733        23.4       0.029
  WSA6400              JUNCTION      0.00   547.67     0  01:25           0         1.9       0.159
  WS6400               JUNCTION      0.07   547.52     0  01:25    0.000531         1.9       0.006
  WSF208               JUNCTION      0.00   547.52     0  01:25           0         1.9       0.065
  WSF207               JUNCTION      1.60   549.06     0  01:25      0.0234        2.86       0.015
  WSF206               JUNCTION      0.00   447.35     0  01:14           0        2.75       0.028
  WSF205               JUNCTION      0.00   446.97     0  01:14           0        2.75       0.077
  WSF204               JUNCTION      0.00   447.08     0  01:14           0        2.74       0.327
  WSF203               JUNCTION      0.00   447.22     0  01:14           0        2.73       0.132
  WSF202               JUNCTION      1.27   448.77     0  01:14      0.0186        2.75       0.072
  WSF201               JUNCTION      0.00   448.96     0  01:14           0        2.75       0.043
  WSF200               JUNCTION      0.00  2306.03     0  01:16           0          15       0.017
  HS02004901           JUNCTION      0.21   265.79     0  01:39     0.00031       0.556       0.408
  HS02004881           JUNCTION    208.26  1689.45     0  01:17       0.323        5.19       0.000
  HS02004876           JUNCTION    369.84  1517.74     0  01:23       0.633        4.87       0.043
  HS02004870           JUNCTION    379.69  1296.32     0  01:10       0.612        4.23       0.002
  HS02004862           JUNCTION    384.66  1195.96     0  01:10       0.832        3.75       0.013
  HS02004856           JUNCTION    283.30  1200.96     0  01:10       0.461        2.92       0.042
  HS02004852           JUNCTION      0.00  1079.87     0  01:10           0        2.46       0.015
  HS02004848           JUNCTION    831.25  1089.60     0  01:10        1.98        2.81       0.016
  HS02004842           JUNCTION      0.09   843.48     0  01:10    2.86e-06         1.2       1.127
  HS02004837           JUNCTION    634.66   842.46     0  01:10        1.15        1.82       0.066
  HS02004830           JUNCTION      0.15   636.40     0  01:09      0.0022        1.42       0.113
  HS02004824           JUNCTION    906.17  1489.62     0  01:19        1.97        3.02       0.029
  HS02004817           JUNCTION      0.72  1196.80     0  01:24     0.00882        2.55       0.683
  HS02004807           JUNCTION    701.03  1896.94     0  01:17        1.12        3.59       0.140
  HS02004802           JUNCTION      0.07  1233.05     0  01:25    1.69e-05        3.18       0.162
  HS02004799           JUNCTION    556.63  1698.72     0  01:17       0.912        7.81       0.059
  HS02004792           JUNCTION   2923.83  3839.74     0  01:18         5.6        9.38       0.009
  HS02004788           JUNCTION    873.43   938.01     0  01:17         1.6        3.78       0.003
  HS02004785           JUNCTION      0.15   611.63     0  01:08      0.0022        2.18       0.069
  HS02004777           JUNCTION      0.36   596.62     0  01:08     0.00151        2.19       0.288
  HS02004770           JUNCTION   2407.06  2407.06     0  01:18         4.3        4.31       0.088
  HS02004480           JUNCTION      0.28  2220.60     0  01:09    0.000706        10.1       0.028
  HS02004479           JUNCTION      0.40   717.26     0  01:09     0.00114        2.71       0.045
  HS02004478           JUNCTION      0.17  2305.77     0  01:14    9.71e-05          13       0.003
  HS02004053           JUNCTION      0.08  1040.71     0  01:14     1.7e-05        3.24      -0.017
  HS02004052           JUNCTION      0.29  1052.84     0  01:13    0.000106        3.24       0.010
  HS02004049           JUNCTION      0.48  1517.83     0  01:14     0.00375         3.7       0.004
  HS02004048           JUNCTION   1481.39  2754.59     0  01:17        2.17        4.19       0.005
  HS02004046           JUNCTION      0.92  1393.96     0  01:17      0.0117        2.04       0.061
  HS02004043           JUNCTION      1.50  1393.06     0  01:17       0.022        2.03       0.001
  HS02004041           JUNCTION      0.11  1391.63     0  01:17     0.00112        2.01       0.002
  HS02004038           JUNCTION   1396.15  1396.15     0  01:17        2.01        2.01       0.007
  HS02004036           JUNCTION      0.00     0.05     0  01:26           0    4.11e-06       4.111 ltr
  HS02004034           JUNCTION      0.07     0.07     0  01:25    4.15e-06    4.15e-06       0.035 ltr
  HS02004028           JUNCTION   1252.94  1252.94     0  01:16        1.73        1.73      -0.000
  HS02004027           JUNCTION      0.15   615.46     0  01:13    3.09e-05        1.52       0.001
  HS02004026           JUNCTION      0.12   616.17     0  01:13    1.86e-05        1.52       0.001
  HS02004024           JUNCTION      0.00   614.35     0  01:13           0        1.52       0.001
  HS02004022           JUNCTION    476.97  1077.12     0  01:17       0.691        2.21      -0.002
  HS02004021           JUNCTION      0.35   801.15     0  01:22     0.00334         2.1       0.000
  HS02004019           JUNCTION      0.11  1522.37     0  01:12    3.23e-06        4.57       0.000
  HS02004018           JUNCTION    266.09  1049.25     0  01:16       0.334        2.69      -0.002
  HS02004017           JUNCTION      0.09  1599.08     0  01:15     2.9e-06        2.74       0.001
  HS02004013           JUNCTION   1194.43  1773.96     0  01:17        1.97        2.78      -0.001
  HS02004010           JUNCTION    579.75   579.75     0  01:17       0.814       0.814       0.002
  HS02003174           JUNCTION      0.00  2795.99     0  01:18           0        6.56       0.021
  HS02003171           JUNCTION    333.22  2683.73     0  01:17       0.576        5.76       0.041
  HS02003170           JUNCTION      0.00  2346.05     0  01:18           0        5.18       0.037
  HS02003168           JUNCTION      0.00  2347.84     0  01:18           0        5.18       0.020
  HS02003166           JUNCTION    826.30  2344.14     0  01:18        1.54        5.18       0.015
  HS02003162           JUNCTION      0.17  1062.97     0  01:16     6.9e-05        4.08       0.002
  HS02003160           JUNCTION    755.23  1819.64     0  01:16        1.02         5.1       0.002
  HS02003150           JUNCTION      0.18  1817.03     0  01:16     0.00042         5.1       0.002
  HS02003148           JUNCTION    833.31  2645.05     0  01:16        1.12        6.22       0.003
  HS02003145           JUNCTION   1197.64  3817.12     0  01:17        1.74        7.96      -0.024
  HS02003143           JUNCTION      0.26  2651.34     0  01:13     0.00264        7.57      -0.017
  HS02003138           JUNCTION      0.37     0.37     0  01:27    0.000725    0.000725       0.000
  HS02003136           JUNCTION    478.61  2595.88     0  01:17       0.735        8.03      -0.275
  HS02003125           JUNCTION      0.41  2510.17     0  01:17     0.00601        3.62       0.011
  HS02003122           JUNCTION    456.63  2509.66     0  01:17       0.736        3.59       0.005
  HS02003119           JUNCTION   1294.72  2061.17     0  01:17        1.82        2.85      -0.028
  HS02003116           JUNCTION      0.06   844.38     0  01:17    0.000806       0.994       0.030
  HS02003111           JUNCTION      0.00   749.60     0  01:17           0       0.966       0.383
  HS02003108           JUNCTION      0.00   749.36     0  01:17           0        0.97       0.619
  HS02003100           JUNCTION      0.00   749.20     0  01:17           0       0.972       0.292
  HS02003088           JUNCTION    704.76   749.47     0  01:17       0.966        1.01       0.138
  HS02003084           JUNCTION      0.03   226.92     0  01:16    0.000469      0.0737       0.054
  HS02003079           JUNCTION      0.15   241.52     0  01:16     0.00215      0.0411       0.234
  HS02003077           JUNCTION      0.00   184.82     0  01:16           0       0.011      -0.024
  HS02003065           JUNCTION      0.28  1188.26     0  01:05    0.000237        5.65      -0.005
  HS02003056           JUNCTION      0.00  2117.40     0  01:17           0        7.28       0.009
  HS02003053           JUNCTION    472.56  1113.63     0  01:17       0.733        1.65       0.015
  HS02003042           JUNCTION      0.00   644.89     0  01:16           0       0.911       0.053
  HS02003039           JUNCTION      0.00   645.15     0  01:16           0       0.897       0.048
  HS02003036           JUNCTION   1239.60  1239.60     0  01:17        1.91        1.92       0.010
[...]
  WS02003082WS02003081        2.83      2.87      2.83      3.16         2.83
  WS02003081WS02003080        2.81      2.84      2.81      2.88         2.81
  WS02003080WS02003077        0.69      0.69      2.84      2.92         0.01
  WS02003073WS02003076        0.80      0.80      1.96      0.30         0.01
  HS02004901HS02004770        0.82      0.82      0.82      0.13         0.01
  HS02004876HS02004881        0.82      0.84      0.82      2.34         0.82
  HS02004870HS02004876        0.75      0.75      0.84      0.01         0.01
  HS02004049HS02004052        0.20      0.20      0.22      0.01         0.01
  HS02004048HS02004049        0.31      0.43      0.31      0.50         0.31
  HS02004046HS02004048        0.21      0.21      0.43      0.01         0.01
  HS02004043HS02004046        0.17      0.17      0.24      0.07         0.07
  HS02004041HS02004043        0.04      0.04      0.16      0.01         0.01
  HS02004038HS02004041        0.01      0.01      0.04      0.01         0.01
  HS02004028HS02004027        0.01      0.19      0.01      0.21         0.01
  HS02003143HS02003065        0.64      0.64      0.89      0.01         0.01
  HS02004842HS02004848        0.66      0.66      0.90      0.01         0.01
  HS02004837HS02004842        0.70      0.70      0.90      0.01         0.01
  HS02004830HS02004837        0.70      0.70      0.76      0.01         0.01
  HS02004824HS02004830        0.76      0.76      0.81      0.01         0.01
  HS02004817HS02004824        0.81      0.81      1.94      0.01         0.01
  HS02004770HS02004777        0.82      0.82      0.83      0.01         0.01
  HS02004799HS02004480        1.00      1.00      1.10      1.11         0.01
  HS02004792HS02004799        0.93      0.93      1.10      0.01         0.01
  HS02004788HS02004792        0.76      0.76      0.93      0.01         0.01
  HS02004785HS02004788        0.76      0.77      0.76      1.81         0.63
  HS02004777HS02004785        0.77      0.77      0.83      0.01         0.01
  HS02004480HS02004478        0.92      1.00      0.92      2.67         0.92
  HS02004479HS02004480        1.01      1.01      1.05      0.01         0.01
  HS02003013HS02003010        0.42      0.42      0.47      0.28         0.28
  HS02003010HS02003007        0.40      0.41      0.41      0.45         0.40
  HS02003007HS02003004        0.41      0.41      0.52      0.24         0.24
  HS02003004HS02003001        0.01      0.52      0.01      1.20         0.01
  HS02003065HS02003056        0.87      0.87      1.03      0.01         0.01
  HS02003042HS02003053        0.36      0.36      0.82      0.01         0.01
  HS02003028HS02003021        0.28      0.28      0.36      0.01         0.01
  HS02003021HS02003018        0.38      0.38      0.40      0.15         0.15
  HS02003018HS02003017        0.40      0.40      0.41      0.09         0.08
  HS02003017HS02003013        0.41      0.41      0.42      0.34         0.32
  HS02004862HS02004870        0.72      0.72      0.75      0.26         0.26
  HS02004848HS02004852        0.66      0.66      0.69      0.02         0.01
  HS02004856HS02004862        0.67      0.67      0.72      0.01         0.01
  HS02004852HS02004856        0.69      0.70      0.72      0.02         0.01
  HS02004024HS02004022        0.01      0.01      0.23      0.01         0.01
  HS02004022HS02004021        0.23      0.23      0.34      0.01         0.01
  HS02004021HS02004019        0.34      0.34      0.45      0.27         0.27
  HS02004019HS02003162        0.01      0.45      0.01      0.48         0.01
  HS02004052HS02004053        0.22      0.22      0.22      0.24         0.22
  HS02003122HS02003125        2.24      2.24      2.25      0.20         0.23
  HS02003119HS02003122        2.11      2.11      2.26      0.01         0.01
  HS02003116HS02003119        1.39      1.39      2.07      0.01         0.01
  HS02003111HS02003116        0.01      0.01      1.46      0.01         0.01
  HS02004018HS02004019        0.28      0.28      0.45      0.01         0.01
  HS02003056HS02003136        0.90      0.90      2.07      0.01         0.01
  HS02004017HS02004018        0.26      0.26      0.28      0.01         0.01
  HS02004013HS02004017        0.08      0.08      0.26      0.09         0.08
  HS02004010HS02004013        0.01      0.01      0.08      0.01         0.01
  HS02004802HS02004478        0.94      0.94      1.02      0.24         0.01
  HS02004478WS02006287        0.78      0.78      1.00      0.01         0.01
  HS02003079HS02003084        0.03      0.03      0.04      0.01         0.01
  HS02003148HS02003145        0.01      0.01      0.18      0.04         0.01
  HS02003145HS02003143        0.18      0.18      0.62      0.17         0.15
  HS02003136WS02003203        2.17      2.17      2.51      0.01         0.01
  HS02003084HS02003088        0.04      0.04      0.07      0.01         0.01
  HS02003077HS02003079        0.01      0.01      0.03      0.01         0.01
  HS02003108HS02003111        0.20      0.20      0.44      0.01         0.01
  HS02003100HS02003108        0.10      0.10      0.20      0.01         0.01
  HS02003088HS02003100        0.08      0.08      0.10      0.04         0.04
  HS02004817HS02004807        0.98      0.98      1.94      0.01         0.01
  HS02004807HS02004802        0.98      0.98      1.00      0.41         0.41
  HS02003053HS02003056        0.82      0.82      1.03      0.01         0.01
  HS02003039HS02003042        0.44      0.44      0.48      0.28         0.01
  HS02003036HS02003039        0.23      0.23      0.28      0.01         0.01
  YS02001759YS02001757        0.19      0.19      0.19      0.19         0.16
  YS02001762YS02001759        0.19      0.19      0.19      0.17         0.16
  YS02001765YS02001762        0.18      0.18      0.19      0.13         0.10
  YS02001770YS02001767        0.18      0.20      0.18      0.75         0.18
  YS02001774YS02001770        0.19      0.19      0.22      0.01         0.01
  YS02001779YS02001774        0.16      0.16      0.22      0.01         0.01
  YS02001767YS02001765        0.18      0.18      0.18      0.23         0.17
  YS02006561YS02001783        0.52      0.52      0.73      0.01         0.01
  YS02001783YS02001784        0.71      0.73      0.71      0.92         0.71
  YS02001784YS02001785        0.59      0.71      0.59      1.30         0.59
  YS02001790YS02001791        0.01      0.01      0.01      0.69         0.01
  YS02001910YS02001907        0.77      0.77      1.01      0.09         0.08
  YS02001786YS02001788        0.01      0.59      0.01      1.09         0.01
  YS02001915YS02001910        0.67      0.67      0.77      0.01         0.01
  YS02001918YS02001915        0.57      0.57      0.67      0.01         0.01
  YS02001923YS02001920        0.50      0.50      0.59      0.01         0.01
  YS02001926YS02001923        0.24      0.24      0.26      0.01         0.01
  YS02001929YS02001926        0.10      0.10      0.26      0.01         0.01
  YS02001932YS02001929        0.06      0.06      0.10      0.01         0.01
  YS02001935YS02001932        0.01      0.01      0.02      0.01         0.01
  YS02001920YS02001918        0.57      0.57      0.59      0.01         0.01
  YS02003290YS02003287        1.73      1.73      2.12      0.01         0.01
  YS02003294YS02003290        1.75      1.75      2.23      0.05         0.01
  YS02003297YS02003294        2.13      2.13      2.16      0.34         0.31
  YS02003275YS02003272        1.43      1.59      1.43      2.00         1.43
  YS02003300YS02003297        1.83      1.83      2.04      0.01         0.01
  YS02003303YS02003300        1.71      1.71      1.92      0.01         0.01
  YS02005550YS02005551        0.01      0.02      0.01      0.09         0.01
  YS02005568YS02005569        0.01      0.10      0.01      0.23         0.01
  YS02005582YS02005583        0.35      0.59      0.35      0.82         0.35
  YS02003272YS02003269        0.01      1.52      0.01      2.01         0.01
  YS02003278YS02003275        1.65      2.20      1.65      2.81         1.65
  YS02003281YS02003278        1.93      1.93      2.15      1.64         1.64
  YS02003284YS02003281        1.93      1.93      2.16      1.21         0.39
  YS02003287YS02003284        2.07      2.07      2.26      0.01         0.07
  YS02003306YS02003303        1.64      1.64      1.83      0.54         0.54
  YS02003309YS02003306        1.49      1.49      1.64      0.01         0.01
  YS02005600YS02005375        0.23      0.23      0.24      0.24         0.23
  YS02005384YS02005593        0.01      1.47      0.01      1.54         0.01
  YS02005595YS02005596        0.34      0.36      0.34      0.38         0.34
  YS02005612YS02005613        0.14      0.14      1.12      0.36         0.01
  YS02005553YS02005554        0.01      0.01      0.01      0.22         0.01
  YS02005556YS02005557        0.01      0.01      0.01      0.26         0.01
  YS02005562YS02005563        0.01      0.01      0.01      0.20         0.01
  YS02005571YS02005572        0.01      0.23      0.01      0.40         0.01
  YS02005576YS02005577        0.01      0.01      0.01      0.10         0.01
  YS02005579YS02005580        0.26      0.46      0.26      0.65         0.26
  YS02005580YS02005581        0.23      0.26      0.23      0.28         0.23
  YS02005583YS02005584        0.35      0.35      0.36      0.36         0.34
  YS02006553YS02006556        0.89      0.89      1.04      0.01         0.01
  YS02006556YS02006558        0.96      0.96      1.08      0.01         0.01
  YSB6556YSB1171              1.14      1.14      2.30      0.01         0.01
  YSB1202YSB1205              1.58      1.58      1.70      0.01         0.01
  YSB1205YSB1209              1.70      1.70      1.71      1.14         1.08
  YSB1209YSB1212              1.63      1.71      1.63      2.14         1.63
  YSB1212YSB1215              1.63      1.63      1.68      0.73         0.72
  YSB1215YSB1218              1.68      1.68      1.72      0.83         0.82
  YSB1218YSB1221              1.61      1.61      1.77      1.32         1.32
  YSB1221YSB1224              1.77      1.77      1.82      1.60         1.60
  YSB1224YSB1105              1.11      2.03      1.11      2.30         1.11
  YSB1189YSB1186              0.69      0.69      0.81      0.19         0.19
  YS02001907YS02006553        1.31      1.31      1.42      0.01         0.01
  YS02006562YS02006558        0.74      0.74      1.08      0.01         0.01
  YS02006558YS02006561        0.61      0.87      0.61      1.23         0.61
  YS6184YS6187                0.18      0.18      0.19      0.10         0.12
  YS6360YS6363                0.15      0.20      0.15      0.81         0.15
  YS6354YS6360                0.25      0.25      0.26      0.25         0.23
  YS6351YS6354                0.25      0.28      0.25      0.49         0.25
  YS6350YS6351                0.28      0.30      0.28      0.84         0.28
  YS6348YS6350                0.29      0.29      0.30      0.27         0.26
  YS6344YS6348                0.29      0.29      0.36      0.01         0.01
  YS6363YS6132                0.15      0.15      0.31      0.01         0.01
  YS6137YS6132                0.22      0.22      0.42      0.01         0.01
  YS6189YS6137                0.22      0.22      0.25      1.67         0.01
  YS6187YS6189                0.17      0.17      0.19      0.34         0.01
  YS6179YS6184                0.17      0.17      0.18      0.01         0.01
  YS6176YS6179                0.10      0.10      0.17      0.01         0.01
  YS6171YS6176                0.13      0.13      0.16      0.01         0.01
  YS6168YS6171                0.13      0.13      0.13      0.09         0.09
  YS6164YS6168                0.08      0.08      0.13      0.01         0.01
  YS6162YS6164                0.12      0.12      0.13      0.01         0.01
  YS6132YS6404                0.01      0.19      0.01      0.34         0.01
  YSB1106YSB1105              0.01      0.20      0.01      0.25         0.01
  YSB1109YSB1106              0.20      0.26      0.20      0.41         0.20
  YSB1112YSB1109              0.26      0.27      0.26      0.30         0.26
  YSB1115YSB1112              0.24      0.24      0.27      0.12         0.12
  YSB1118YSB1115              0.27      0.28      0.27      0.30         0.27
  YSB1121YSB1118              0.28      0.31      0.28      0.41         0.28
  YSB1124YSB1121              0.27      0.27      0.31      0.01         0.01
  YSB1105YSB1103              0.01      0.01      0.18      0.18         0.01
  YS02001748YS02001751        0.01      0.01      0.03      0.01         0.01
  YS02001751YS02001754        0.03      0.03      0.10      0.01         0.01
  YS02001754YS02001757        0.11      0.11      0.19      0.01         0.01
  YS02001882YS02001884        0.67      0.67      0.68      0.01         0.01
  YS02001884YS02001887        0.71      0.71      0.72      0.01         0.01
  YS02001890YS02001895        0.66      0.66      0.77      0.01         0.01
  YS02001895YS02001898        0.65      0.65      0.66      0.01         0.01
  YS02001898YS02001901        0.66      0.66      0.71      0.01         0.01
  YS02001901YS02001904        0.70      0.70      0.71      0.01         0.01
  YS02001904YS02001907        0.70      0.70      1.04      0.01         0.01
  YS02001887YS02001890        0.74      0.74      0.75      0.20         0.01
  YS02004309YS02004307        0.19      1.05      0.19      1.03         0.19
  YS02004319YS02004316        0.40      0.40      0.42      0.01         0.01
  YS02005376YS02005378        1.93      1.93      2.99      0.01         0.01
  YS02005378YS02005381        2.71      2.71      2.99      0.49         0.01
  YS02005381YS02005384        1.47      1.47      2.71      2.86         0.01
  YS02005598YS02005374        0.25      0.25      0.26      0.26         0.25
  YS02005602YS02005603        0.21      0.52      0.21      0.67         0.21
  YS02005603YS02005607        0.21      0.21      0.22      0.22         0.21
  YS02005621YS02005622        0.01      0.01      0.01      0.06         0.01
  YS02005624YS02005625        0.01      0.01      0.25      0.03         0.01
  YS02005630YS02005631        0.01      0.04      0.01      0.09         0.01
  YS02005633YS02005634        0.01      0.04      0.01      0.06         0.01
  YS02005636YS02005637        0.01      0.08      0.01      0.12         0.01
  YS02005639YS02005640        0.01      0.05      0.01      0.08         0.01
  YS02005627YS02005628        0.01      0.05      0.01      0.26         0.01
  YS02005644YS02005645        0.01      0.16      0.01      0.19         0.01
  YS02005650YS02005651        0.01      0.14      0.01      0.24         0.01
  YS02005653YS02005654        0.12      0.12      0.13      0.12         0.12
  YS02005654YS02005655        0.01      0.13      0.01      0.22         0.01
  YS02005658YS02005659        0.01      0.07      0.01      0.10         0.01
  YS02005661YS02005662        0.01      0.12      0.01      0.24         0.01
  YS02005664YS02005665        0.01      0.13      0.01      0.50         0.01
  YS02005667YS02005668        0.01      0.01      0.58      0.16         0.01
  YS02005647YS02005648        0.01      0.31      0.01      0.46         0.01
  YS02004312YS02004309        0.68      0.68      1.05      0.01         0.01
  YS02004314YS02004312        0.45      0.45      0.68      0.01         0.01
  YS02004316YS02004314        0.42      0.42      0.45      0.36         0.36
  YS02004320YS02004319        0.01      0.01      0.32      0.01         0.01
  YS6404YS6401                0.01      0.01      0.01      0.78         0.01
  YSB1132YSB1135              0.68      0.68      0.75      0.01         0.01
  YSB1135YSB1138              0.75      0.75      0.78      0.01         0.01
  YSB1138YSB1141              0.78      0.78      0.88      0.47         0.47
  YSB1141YSB1145              0.85      0.85      0.88      0.46         0.43
  YSB1148YSB1151              0.98      0.98      1.28      0.01         0.01
  YSB1151YSB1154              1.09      1.09      1.48      0.01         0.01
  YSB1154YSB6556              1.14      1.14      1.48      0.49         0.01
  YSB1128YSB1132              0.65      0.65      0.68      0.01         0.01
  YSB1145YSB1148              0.88      0.88      0.98      0.01         0.01
  YSB1198YSB1195              0.31      0.31      0.62      0.01         0.01
  YSB1195YSB1192              0.62      0.62      0.65      0.01         0.01
  YSB1192YSB1189              0.65      0.65      0.69      0.01         0.01
  YSB1186YSB1183              0.75      0.75      0.88      0.01         0.01
  YSB1183YSB1180              0.88      0.88      0.92      0.23         0.24
  YSB1180YSB1177              0.92      0.92      1.33      0.01         0.01
  YSB1177YSB1174              1.33      1.33      1.64      0.24         0.25
  YSB1174YSB1171              1.27      1.27      1.94      0.19         0.19
  YSB1171HS02004479           0.97      0.97      1.44      0.01         0.01
  HS02003001HS02003166        0.01      0.01      0.05      0.01         0.01
  YS02004307HS02004052        0.01      0.01      0.22      0.01         0.01
  HS02004881HS02006253        0.82      0.82      2.27      0.01         0.01
  WS0200404049WS6136          0.21      0.21      0.30      0.01         0.01
  HS02003125WS02003215        2.25      2.25      2.36      0.01         0.01
  YS02001793JiankangQianchi        0.01      0.01      4.06      0.01         0.01
  YS02001757CaochengTiaoxuchi        0.19      0.19      0.58      0.13         0.12
  WS02004041WS6409            1.25      1.25      1.36      1.34         1.25
  WSF200WS02003060            0.31      0.31      0.60      0.01         0.01
  HS02004053WS02004407        0.22      0.22      1.28      0.01         0.01
  HS02003036HS02003028        0.23      0.23      0.34      0.01         0.01
  
  
  ***************
  Pumping Summary
  ***************
  
  ---------------------------------------------------------------------------------------------------------
                                                  Min       Avg       Max     Total     Power    % Time Off
                        Percent   Number of      Flow      Flow      Flow    Volume     Usage    Pump Curve
  Pump                 Utilized   Start-Ups       LPS       LPS       LPS  10^6 ltr     Kw-hr    Low   High
  ---------------------------------------------------------------------------------------------------------
  CaochengSewagePump1     47.52           1      0.00    200.00    200.00     1.393     10.64    0.0    0.0
  CaochengSewagePump2     21.40           1      0.00    200.00    200.00     0.627      5.29    0.0    0.0
  CaochengRainPump1       19.86           1      0.00    683.00    683.00     1.989      3.17    0.0   35.5
  CaochengRainPump2       16.41           1      0.00    683.00    683.00     1.643      2.39    0.0   43.0
  JiankangSewagePump      62.50           2      0.00    300.00    300.00     2.749     43.96    0.0    0.0
  JiankangRainPump1       19.97           5      0.00   1000.00   1000.00     2.927     19.44    0.0    0.0
  JiankangRainPump2        0.00           0      0.00      0.00      0.00     0.000      0.00    0.0    0.0
  XierchiSewagePump1      95.90           1      0.00     95.00     95.00     1.336      7.01    0.0    0.0
  XierchiSewagePump2      88.12           1      0.00     95.00     95.00     1.227      6.17    0.0    0.0
  XierchiSewagePump3       0.00           0      0.00      0.00      0.00     0.000      0.00    0.0    0.0
  XierchiSewagePump4       0.00           0      0.00      0.00      0.00     0.000      0.00    0.0    0.0
  

  Analysis begun on:  Sun Jul 31 00:52:39 2022
  Analysis ended on:  Sun Jul 31 01:45:47 2022
  Total elapsed time: 00:53:08