
  EPA STORM WATER MANAGEMENT MODEL - VERSION 5.1 (Build 5.3.0.dev0)
  --------------------------------------------------------------

  WARNING 04: minimum elevation drop used for Conduit WS02004404WS02004405
  WARNING 03: negative offset ignored for Link YS02001904YS02001907
  
  *********************************************************
  NOTE: The summary statistics displayed in this report are
  based on results found at every computational time step,  
  not just on results from each reporting time step.
  *********************************************************
  
  ****************
  Analysis Options
  ****************
  Flow Units ............... LPS
  Process Models:
    Rainfall/Runoff ........ YES
    RDII ................... NO
    Snowmelt ............... NO
    Groundwater ............ NO
    Flow Routing ........... YES
    Ponding Allowed ........ NO
    Water Quality .......... NO
  Infiltration Method ...... HORTON
  Flow Routing Method ...... DYNWAVE
  Surcharge Method ......... EXTRAN
  Starting Date ............ 03/31/2017 00:00:00
  Ending Date .............. 03/31/2017 03:00:00
  Antecedent Dry Days ...... 8.0
  Report Time Step ......... 00:00:30
  Wet Time Step ............ 00:01:00
  Dry Time Step ............ 00:01:00
  Routing Time Step ........ 30.00 sec
  Variable Time Step ....... YES
  Maximum Trials ........... 8
  Number of Threads ........ 6
  Head Tolerance ........... 0.001500 m
  
  
  **************************        Volume         Depth
  Runoff Quantity Continuity     hectare-m            mm
  **************************     ---------       -------
  Total Precipitation ......         8.786        74.557
  Evaporation Loss .........         0.000         0.000
  Infiltration Loss ........         0.304         2.580
  Surface Runoff ...........         7.893        66.978
  Final Storage ............         0.600         5.094
  Continuity Error (%) .....        -0.127
  
  
  **************************        Volume        Volume
  Flow Routing Continuity        hectare-m      10^6 ltr
  **************************     ---------     ---------
  Dry Weather Inflow .......         0.171         1.706
  Wet Weather Inflow .......         7.869        78.689
  Groundwater Inflow .......         0.000         0.000
  RDII Inflow ..............         0.000         0.000
  External Inflow ..........         0.033         0.326
  External Outflow .........         4.413        44.132
  Flooding Loss ............         3.439        34.387
  Evaporation Loss .........         0.000         0.000
  Exfiltration Loss ........         0.000         0.000
  Initial Stored Volume ....         0.303         3.031
  Final Stored Volume ......         0.553         5.531
  Continuity Error (%) .....        -0.356
  
  
  *************************
  Highest Continuity Errors
  *************************
  Node WS02005193 (57.56%)
  Node YS02001884 (24.40%)
  Node YS02001774 (11.10%)
  Node YS02004320 (7.25%)
  Node HS02003116 (5.77%)
  
  
  ***************************
  Time-Step Critical Elements
  ***************************
  Link YS02005655YS02005657 (37.78%)
  Link WS02006252WS02006251 (24.71%)
  Link WS02004041WS6409 (20.49%)
  Link WS02003073WS02003076 (1.68%)
  Link WS02006280WS02006229 (1.67%)
  
  
  ********************************
  Highest Flow Instability Indexes
  ********************************
  Link WS02006238WS02006235 (65)
  Link WS02003200WS02003201 (61)
  Link WS02003215WS02003116 (60)
  Link WS02003122WS02003187 (60)
  Link YS02005562YS02005563 (59)
  
  
  *************************
  Routing Time Step Summary
  *************************
  Minimum Time Step           :     0.50 sec
  Average Time Step           :     0.96 sec
  Maximum Time Step           :    30.00 sec
  Percent in Steady State     :     0.00
  Average Iterations per Step :     6.07
  Percent Not Converging      :    36.85
  
  
  ***************************
  Subcatchment Runoff Summary
  ***************************
  
  ------------------------------------------------------------------------------------------------------------------------------
                            Total      Total      Total      Total     Imperv       Perv      Total       Total     Peak  Runoff
                           Precip      Runon       Evap      Infil     Runoff     Runoff     Runoff      Runoff   Runoff   Coeff
  Subcatchment                 mm         mm         mm         mm         mm         mm         mm    10^6 ltr      LPS
  ------------------------------------------------------------------------------------------------------------------------------
  sub0                      74.56       0.00       0.00       0.48      39.19       2.44      72.28        0.06    41.45   0.969
  sub1                      74.56       0.00       0.00       1.14      62.91       6.39      69.30        0.46   297.87   0.930
  sub2                      74.56       0.00       0.00       3.84      44.15      17.95      62.10        0.58   300.63   0.833
  sub3                      74.56       0.00       0.00       3.84      43.51      16.44      59.94        1.35   644.78   0.804
  sub4                      74.56       0.00       0.00       1.14      60.39       6.06      66.45        1.39   713.12   0.891
  sub5                      74.56       0.00       0.00       0.69      62.12       3.90      70.14        0.79   518.56   0.941
  sub6                      74.56       0.00       0.00       0.71      63.51       3.99      69.31        1.79  1091.78   0.930
  sub7                      74.56       0.00       0.00       0.86      58.64       4.80      70.80        0.24   168.92   0.950
  sub8                      74.56       0.00       0.00       0.89      60.85       4.98      70.40        0.45   307.82   0.944
  sub9                      74.56       0.00       0.00       0.87      59.49       4.87      70.43        0.34   230.15   0.945
  sub10                     74.56       0.00       0.00       0.80      61.85       4.47      70.15        0.77   512.10   0.941
  sub11                     74.56       0.00       0.00       0.79      61.64       4.45      70.61        0.82   568.42   0.947
  sub12                     74.56       0.00       0.00       1.33      61.35       7.54      70.39        0.62   461.20   0.944
  sub13                     74.56       0.00       0.00       3.49      46.35      18.22      65.67        0.78   478.26   0.881
  sub14                     74.56       0.00       0.00       0.88      60.59       4.96      70.31        0.67   452.52   0.943
  sub15                     74.56       0.00       0.00       2.95      46.60      15.38      66.62        1.15   705.04   0.894
  sub16                     74.56       0.00       0.00       3.17      43.68      16.96      67.42        0.71   473.28   0.904
  sub17                     74.56       0.00       0.00       3.13      45.29      16.76      67.30        0.58   382.51   0.903
  sub18                     74.56       0.00       0.00       0.88      60.91       4.99      70.85        0.56   409.33   0.950
  sub19                     74.56       0.00       0.00       3.10      47.27      16.66      67.12        0.21   139.71   0.900
  sub20                     74.56       0.00       0.00       0.90      61.96       5.07      70.58        0.49   348.25   0.947
  sub21                     74.56       0.00       0.00       1.14      56.82       6.38      70.66        0.36   261.70   0.948
  sub22                     74.56       0.00       0.00       4.46      40.70      22.52      63.22        3.99  2289.95   0.848
  sub23                     74.56       0.00       0.00       3.78      44.11      19.73      65.35        3.12  1916.68   0.877
  sub24                     74.56       0.00       0.00       1.36      56.71       7.57      70.25        2.52  1816.22   0.942
  sub25                     74.56       0.00       0.00       0.72      66.49       4.15      71.54        0.93   728.65   0.960
  sub26                     74.56       0.00       0.00       2.43      53.61      13.81      69.46        0.99   784.14   0.932
  sub27                     74.56       0.00       0.00       0.92      63.58       5.21      70.00        1.01   678.15   0.939
  sub28                     74.56       0.00       0.00       0.81      63.75       4.60      70.12        1.10   733.14   0.940
  sub29                     74.56       0.00       0.00       0.83      64.18       4.64      68.82        1.11   659.30   0.923
  sub30                     74.56       0.00       0.00       0.82      64.96       4.68      71.07        1.60  1205.97   0.953
  sub31                     74.56       0.00       0.00       1.51      49.56       8.32      70.59        1.50  1117.03   0.947
  sub32                     74.56       0.00       0.00       0.81      64.02       4.62      70.69        1.41  1004.57   0.948
  sub33                     74.56       0.00       0.00       1.26      57.67       7.09      70.65        1.29   969.31   0.948
  sub34                     74.56       0.00       0.00       5.00      34.59      26.89      64.72        1.44   950.18   0.868
  sub35                     74.56       0.00       0.00       0.75      59.33       4.27      72.01        0.25   208.97   0.966
  sub36                     74.56       0.00       0.00       2.28      56.49      12.99      69.48        0.60   473.67   0.932
  sub37                     74.56       0.00       0.00       3.95      43.01      22.06      67.16        0.51   385.22   0.901
  sub38                     74.56       0.00       0.00       3.49      44.97      19.60      68.08        1.29  1006.80   0.913
  sub39                     74.56       0.00       0.00       0.83      66.71       4.80      71.52        0.76   614.75   0.959
  sub40                     74.56       0.00       0.00       0.81      64.93       4.67      71.61        0.83   673.85   0.960
  sub41                     74.56       0.00       0.00       1.60      57.88       9.05      70.41        1.35  1052.31   0.944
  sub42                     74.56       0.00       0.00       0.89      62.30       5.10      71.47        0.72   565.39   0.959
  sub43                     74.56       0.00       0.00       3.04      32.18      15.66      68.30        0.56   375.84   0.916
  sub44                     74.56       0.00       0.00       0.70      62.77       3.93      70.45        0.80   535.51   0.945
  sub45                     74.56       0.00       0.00       1.72      57.40       9.54      69.25        1.27   865.02   0.929
  sub46                     74.56       0.00       0.00       6.24      25.31      32.52      61.94        0.43   252.03   0.831
  sub47                     74.56       0.00       0.00       0.79      61.99       4.47      70.85        0.54   388.07   0.950
  sub48                     74.56       0.00       0.00       0.89      61.25       5.01      70.66        0.54   383.07   0.948
  sub49                     74.56       0.00       0.00       0.81      63.70       4.60      70.38        0.64   438.97   0.944
  sub50                     74.56       0.00       0.00       0.82      65.02       4.69      70.34        0.49   338.78   0.943
  sub51                     74.56       0.00       0.00       0.80      63.54       4.58      70.91        0.33   244.52   0.951
  sub52                     74.56       0.00       0.00       0.69      61.74       3.87      70.59        0.77   518.77   0.947
  sub53                     74.56       0.00       0.00       0.79      62.13       4.48      70.80        0.72   510.26   0.950
  sub54                     74.56       0.00       0.00       0.72      64.82       4.07      69.86        0.42   269.44   0.937
  sub55                     74.56       0.00       0.00       0.80      62.37       4.50      70.16        0.56   372.18   0.941
  sub56                     74.56       0.00       0.00       1.84      52.19       9.66      67.79        0.96   570.08   0.909
  sub57                     74.56       0.00       0.00       3.08      46.37      15.83      66.02        0.43   255.25   0.885
  sub58                     74.56       0.00       0.00       7.58      19.46      33.45      52.91        1.96   827.01   0.710
  sub59                     74.56       0.00       0.00       7.99      16.52      30.47      47.00        1.08   404.02   0.630
  sub60                     74.56       0.00       0.00       1.21      60.81       6.82      70.07        0.92   644.19   0.940
  sub61                     74.56       0.00       0.00       1.74      58.26       9.70      69.39        1.27   893.27   0.931
  sub62                     74.56       0.00       0.00       0.82      64.51       4.66      69.81        1.91  1247.39   0.936
  sub67                     74.56       0.00       0.00       0.79      61.69       4.45      70.22        1.31   869.53   0.942
  sub68                     74.56       0.00       0.00       1.32      54.21       7.21      69.89        1.92  1294.84   0.937
  sub71                     74.56       0.00       0.00       0.81      62.32       4.51      69.17        1.81  1097.85   0.928
  sub72                     74.56       0.00       0.00       0.68      59.64       3.76      68.70        0.94   539.41   0.921
  sub73                     74.56       0.00       0.00       1.71      42.14       9.17      70.61        0.07    51.43   0.947
  sub74                     74.56       0.00       0.00       2.92      41.95      15.92      68.68        0.11    81.56   0.921
  sub75                     74.56       0.00       0.00       2.72      43.00      14.94      69.10        0.15   115.11   0.927
  sub76                     74.56       0.00       0.00       1.62      49.64       8.92      70.50        0.17   129.64   0.946
  sub77                     74.56       0.00       0.00       1.55      51.10       8.59      70.68        0.11    86.03   0.948
  sub78                     74.56       0.00       0.00       1.24      56.31       6.92      70.65        0.19   143.91   0.948
  sub79                     74.56       0.00       0.00       2.19      46.70      11.91      69.32        0.18   127.49   0.930
  sub80                     74.56       0.00       0.00       3.10      42.88      16.95      68.25        0.20   145.66   0.915
  sub81                     74.56       0.00       0.00       3.49      40.46      18.82      67.33        0.21   142.58   0.903
  sub82                     74.56       0.00       0.00       3.51      40.74      19.05      67.50        0.20   144.22   0.905
  sub83                     74.56       0.00       0.00       3.64      40.66      19.90      67.44        0.23   164.27   0.905
  sub84                     74.56       0.00       0.00       3.38      42.87      18.22      67.23        0.37   248.41   0.902
  sub85                     74.56       0.00       0.00       1.97      40.75      10.41      69.82        0.31   217.23   0.936
  sub86                     74.56       0.00       0.00       2.44      47.14      13.33      68.90        0.33   236.47   0.924
  sub87                     74.56       0.00       0.00       3.40      43.23      18.55      67.58        0.20   144.42   0.906
  sub88                     74.56       0.00       0.00       3.30      43.99      18.12      67.81        0.21   149.45   0.909
  sub89                     74.56       0.00       0.00       2.94      44.78      16.27      68.68        0.18   137.88   0.921
  sub90                     74.56       0.00       0.00       2.58      47.70      14.29      69.07        0.17   127.69   0.926
  sub91                     74.56       0.00       0.00       2.45      44.86      13.53      69.63        0.13    97.13   0.934
  sub92                     74.56       0.00       0.00       2.73      40.89      14.99      69.43        0.10    81.07   0.931
  sub93                     74.56       0.00       0.00       2.81      42.50      15.59      69.32        0.13    99.64   0.930
  sub94                     74.56       0.00       0.00       2.81      42.31      15.45      69.13        0.15   114.71   0.927
  sub95                     74.56       0.00       0.00       2.33      37.32      12.45      69.96        0.11    79.08   0.938
  sub96                     74.56       0.00       0.00       1.68      38.37       8.90      70.99        0.13    99.74   0.952
  sub97                     74.56       0.00       0.00       6.29      28.26      35.77      64.65        0.15   123.52   0.867
  sub98                     74.56       0.00       0.00       6.91      18.54      37.07      62.24        0.20   125.48   0.835
  sub99                     74.56       0.00       0.00       7.78      14.33      39.45      58.26        0.21   101.09   0.781
  sub100                    74.56       0.00       0.00       7.78      14.30      37.35      56.15        0.20    88.04   0.753
  sub101                    74.56       0.00       0.00       7.81      14.35      37.24      55.84        0.19    83.43   0.749
  sub102                    74.56       0.00       0.00       7.42      16.10      33.89      55.25        0.17    73.21   0.741
  sub103                    74.56       0.00       0.00       7.71      14.98      34.27      53.48        0.25   106.29   0.717
  sub104                    74.56       0.00       0.00       7.72      15.00      33.87      52.98        0.28   114.95   0.711
  sub105                    74.56       0.00       0.00       8.10      13.14      35.44      51.84        0.30   116.42   0.695
  sub106                    74.56       0.00       0.00       7.81      14.34      35.99      54.54        0.28   118.74   0.731
  sub107                    74.56       0.00       0.00       8.10      13.19      38.90      55.33        0.39   169.51   0.742
  sub108                    74.56       0.00       0.00       8.26      12.64      42.22      57.48        0.54   258.49   0.771
  sub109                    74.56       0.00       0.00       6.52      25.51      34.27      61.49        0.88   509.38   0.825
  sub110                    74.56       0.00       0.00       1.82      57.14      10.22      69.65        1.46  1073.54   0.934
  sub111                    74.56       0.00       0.00       2.64      51.83      14.65      68.52        0.59   426.10   0.919
  sub112                    74.56       0.00       0.00       2.07      53.50      11.56      69.48        0.55   405.88   0.932
  sub113                    74.56       0.00       0.00       1.40      59.27       7.92      70.36        0.49   364.35   0.944
  sub114                    74.56       0.00       0.00       1.30      59.67       7.33      70.53        0.47   351.09   0.946
  sub115                    74.56       0.00       0.00       1.20      60.27       6.77      70.61        0.52   387.98   0.947
  sub116                    74.56       0.00       0.00       3.86      39.52      20.53      66.28        0.12    80.86   0.889
  sub117                    74.56       0.00       0.00       4.09      40.56      22.08      66.12        0.30   204.33   0.887
  

  ***********************
  LID Performance Summary
  ***********************

  --------------------------------------------------------------------------------------------------------------------
                                         Total      Evap     Infil   Surface    Drain    Initial     Final  Continuity
                                        Inflow      Loss      Loss   Outflow   Outflow   Storage   Storage       Error
  Subcatchment      LID Control             mm        mm        mm        mm        mm        mm        mm           %
  --------------------------------------------------------------------------------------------------------------------
  sub0              VegetativeSwale      74.56      0.00      0.14     73.01      0.00      0.00      1.67       -0.35
  sub5              VegetativeSwale      74.56      0.00      0.14     73.01      0.00      0.00      1.67       -0.35
  sub6              VegetativeSwale      74.56      0.00      0.14     73.01      0.00      0.00      1.67       -0.35
  sub7              VegetativeSwale      74.56      0.00      0.17     72.97      0.00      0.00      1.67       -0.35
  sub8              VegetativeSwale      74.56      0.00      0.17     72.97      0.00      0.00      1.67       -0.35
  sub9              VegetativeSwale      74.56      0.00      0.17     72.97      0.00      0.00      1.67       -0.35
  sub10             VegetativeSwale      74.56      0.00      0.16     72.99      0.00      0.00      1.67       -0.35
  sub11             VegetativeSwale      74.56      0.00      0.16     72.99      0.00      0.00      1.67       -0.35
  sub12             VegetativeSwale      74.56      0.00      0.25     72.90      0.00      0.00      1.67       -0.35
  sub13             VegetativeSwale      74.56      0.00      0.66     72.51      0.00      0.00      1.65       -0.35
  sub14             VegetativeSwale      74.56      0.00      0.17     72.97      0.00      0.00      1.67       -0.35
  sub15             VegetativeSwale      74.56      0.00      0.58     72.58      0.00      0.00      1.66       -0.35
  sub16             VegetativeSwale      74.56      0.00      0.64     72.52      0.00      0.00      1.65       -0.35
  sub17             VegetativeSwale      74.56      0.00      0.62     72.54      0.00      0.00      1.66       -0.35
  sub18             VegetativeSwale      74.56      0.00      0.17     72.97      0.00      0.00      1.67       -0.35
  sub19             VegetativeSwale      74.56      0.00      0.60     72.56      0.00      0.00      1.66       -0.35
  sub20             VegetativeSwale      74.56      0.00      0.17     72.97      0.00      0.00      1.67       -0.35
  sub21             VegetativeSwale      74.56      0.00      0.23     72.91      0.00      0.00      1.67       -0.35
  sub23             VegetativeSwale      74.56      0.00      0.72     72.45      0.00      0.00      1.65       -0.35
  sub24             VegetativeSwale      74.56      0.00      0.27     72.88      0.00      0.00      1.67       -0.35
  sub25             VegetativeSwale      74.56      0.00      0.14     73.01      0.00      0.00      1.67       -0.35
  sub26             VegetativeSwale      74.56      0.00      0.47     72.69      0.00      0.00      1.66       -0.35
  sub27             VegetativeSwale      74.56      0.00      0.17     72.97      0.00      0.00      1.67       -0.35
  sub28             VegetativeSwale      74.56      0.00      0.16     72.99      0.00      0.00      1.67       -0.35
  sub30             VegetativeSwale      74.56      0.00      0.16     72.99      0.00      0.00      1.67       -0.35
  sub31             VegetativeSwale      74.56      0.00      0.33     72.82      0.00      0.00      1.67       -0.35
  sub32             VegetativeSwale      74.56      0.00      0.16     72.99      0.00      0.00      1.67       -0.35
  sub33             VegetativeSwale      74.56      0.00      0.25     72.90      0.00      0.00      1.67       -0.35
  sub34             VegetativeSwale      74.56      0.00      0.97     72.21      0.00      0.00      1.64       -0.35
  sub35             VegetativeSwale      74.56      0.00      0.16     72.99      0.00      0.00      1.67       -0.35
  sub37             VegetativeSwale      74.56      0.00      0.75     72.41      0.00      0.00      1.65       -0.35
  sub38             VegetativeSwale      74.56      0.00      0.68     72.49      0.00      0.00      1.65       -0.35
  sub40             VegetativeSwale      74.56      0.00      0.16     72.99      0.00      0.00      1.67       -0.35
  sub41             VegetativeSwale      74.56      0.00      0.31     72.84      0.00      0.00      1.67       -0.35
  sub42             VegetativeSwale      74.56      0.00      0.17     72.97      0.00      0.00      1.67       -0.35
  sub43             VegetativeSwale      74.56      0.00      0.73     72.43      0.00      0.00      1.65       -0.35
  sub44             VegetativeSwale      74.56      0.00      0.14     73.01      0.00      0.00      1.67       -0.35
  sub45             VegetativeSwale      74.56      0.00      0.33     72.82      0.00      0.00      1.67       -0.35
  sub46             VegetativeSwale      74.56      0.00      1.21     71.97      0.00      0.00      1.63       -0.35
  sub47             VegetativeSwale      74.56      0.00      0.16     72.99      0.00      0.00      1.67       -0.35
  sub48             VegetativeSwale      74.56      0.00      0.17     72.97      0.00      0.00      1.67       -0.35
  sub49             VegetativeSwale      74.56      0.00      0.16     72.99      0.00      0.00      1.67       -0.35
  sub50             VegetativeSwale      74.56      0.00      0.16     72.99      0.00      0.00      1.67       -0.35
  sub51             VegetativeSwale      74.56      0.00      0.16     72.99      0.00      0.00      1.67       -0.35
  sub52             VegetativeSwale      74.56      0.00      0.14     73.01      0.00      0.00      1.67       -0.35
  sub53             VegetativeSwale      74.56      0.00      0.16     72.99      0.00      0.00      1.67       -0.35
  sub54             VegetativeSwale      74.56      0.00      0.14     73.01      0.00      0.00      1.67       -0.35
  sub55             VegetativeSwale      74.56      0.00      0.16     72.99      0.00      0.00      1.67       -0.35
  sub56             VegetativeSwale      74.56      0.00      0.37     72.78      0.00      0.00      1.67       -0.35
  sub57             VegetativeSwale      74.56      0.00      0.60     72.56      0.00      0.00      1.66       -0.35
  sub60             VegetativeSwale      74.56      0.00      0.23     72.91      0.00      0.00      1.67       -0.35
  sub61             VegetativeSwale      74.56      0.00      0.33     72.82      0.00      0.00      1.67       -0.35
  sub62             VegetativeSwale      74.56      0.00      0.16     72.99      0.00      0.00      1.67       -0.35
  sub67             VegetativeSwale      74.56      0.00      0.16     72.99      0.00      0.00      1.67       -0.35
  sub68             VegetativeSwale      74.56      0.00      0.27     72.88      0.00      0.00      1.67       -0.35
  sub71             VegetativeSwale      74.56      0.00      0.16     72.99      0.00      0.00      1.67       -0.35
  sub72             VegetativeSwale      74.56      0.00      0.14     73.01      0.00      0.00      1.67       -0.35
  sub73             VegetativeSwale      74.56      0.00      0.41     72.75      0.00      0.00      1.66       -0.35
  sub74             VegetativeSwale      74.56      0.00      0.62     72.54      0.00      0.00      1.66       -0.35
  sub75             VegetativeSwale      74.56      0.00      0.58     72.58      0.00      0.00      1.66       -0.35
  sub76             VegetativeSwale      74.56      0.00      0.35     72.80      0.00      0.00      1.67       -0.35
  sub77             VegetativeSwale      74.56      0.00      0.33     72.82      0.00      0.00      1.67       -0.35
  sub78             VegetativeSwale      74.56      0.00      0.25     72.90      0.00      0.00      1.67       -0.35
  sub79             VegetativeSwale      74.56      0.00      0.47     72.69      0.00      0.00      1.66       -0.35
  sub80             VegetativeSwale      74.56      0.00      0.64     72.52      0.00      0.00      1.65       -0.35
  sub81             VegetativeSwale      74.56      0.00      0.72     72.45      0.00      0.00      1.65       -0.35
  sub82             VegetativeSwale      74.56      0.00      0.72     72.45      0.00      0.00      1.65       -0.35
  sub83             VegetativeSwale      74.56      0.00      0.73     72.43      0.00      0.00      1.65       -0.35
  sub84             VegetativeSwale      74.56      0.00      0.68     72.49      0.00      0.00      1.65       -0.35
  sub85             VegetativeSwale      74.56      0.00      0.47     72.69      0.00      0.00      1.66       -0.35
  sub86             VegetativeSwale      74.56      0.00      0.50     72.65      0.00      0.00      1.66       -0.35
  sub87             VegetativeSwale      74.56      0.00      0.68     72.49      0.00      0.00      1.65       -0.35
  sub88             VegetativeSwale      74.56      0.00      0.66     72.51      0.00      0.00      1.65       -0.35
  sub89             VegetativeSwale      74.56      0.00      0.60     72.56      0.00      0.00      1.66       -0.35
  sub90             VegetativeSwale      74.56      0.00      0.52     72.64      0.00      0.00      1.66       -0.35
  sub91             VegetativeSwale      74.56      0.00      0.52     72.64      0.00      0.00      1.66       -0.35
  sub92             VegetativeSwale      74.56      0.00      0.60     72.56      0.00      0.00      1.66       -0.35
  sub93             VegetativeSwale      74.56      0.00      0.60     72.56      0.00      0.00      1.66       -0.35
  sub94             VegetativeSwale      74.56      0.00      0.60     72.56      0.00      0.00      1.66       -0.35
  sub95             VegetativeSwale      74.56      0.00      0.56     72.60      0.00      0.00      1.66       -0.35
  sub96             VegetativeSwale      74.56      0.00      0.43     72.73      0.00      0.00      1.66       -0.35
  sub97             VegetativeSwale      74.56      0.00      1.18     72.01      0.00      0.00      1.63       -0.35
  sub98             VegetativeSwale      74.56      0.00      1.39     71.79      0.00      0.00      1.48       -0.14
  sub99             VegetativeSwale      74.56      0.00      1.52     71.66      0.00      0.00      1.48       -0.14
  sub100            VegetativeSwale      74.56      0.00      1.52     71.66      0.00      0.00      1.48       -0.14
  sub101            VegetativeSwale      74.56      0.00      1.52     71.66      0.00      0.00      1.48       -0.14
  sub102            VegetativeSwale      74.56      0.00      1.46     71.72      0.00      0.00      1.48       -0.14
  sub103            VegetativeSwale      74.56      0.00      1.50     71.68      0.00      0.00      1.48       -0.14
  sub104            VegetativeSwale      74.56      0.00      1.50     71.68      0.00      0.00      1.48       -0.14
  sub105            VegetativeSwale      74.56      0.00      1.56     71.63      0.00      0.00      1.48       -0.14
  sub106            VegetativeSwale      74.56      0.00      1.52     71.66      0.00      0.00      1.48       -0.14
  sub107            VegetativeSwale      74.56      0.00      1.56     71.63      0.00      0.00      1.48       -0.14
  sub108            VegetativeSwale      74.56      0.00      1.58     71.61      0.00      0.00      1.47       -0.14
  sub109            VegetativeSwale      74.56      0.00      1.23     71.95      0.00      0.00      1.63       -0.35
  sub110            VegetativeSwale      74.56      0.00      0.35     72.80      0.00      0.00      1.67       -0.35
  sub111            VegetativeSwale      74.56      0.00      0.50     72.65      0.00      0.00      1.66       -0.35
  sub112            VegetativeSwale      74.56      0.00      0.41     72.75      0.00      0.00      1.66       -0.35
  sub113            VegetativeSwale      74.56      0.00      0.27     72.88      0.00      0.00      1.67       -0.35
  sub114            VegetativeSwale      74.56      0.00      0.25     72.90      0.00      0.00      1.67       -0.35
  sub115            VegetativeSwale      74.56      0.00      0.23     72.91      0.00      0.00      1.67       -0.35
  sub116            VegetativeSwale      74.56      0.00      0.77     72.40      0.00      0.00      1.65       -0.35
  sub117            VegetativeSwale      74.56      0.00      0.79     72.38      0.00      0.00      1.65       -0.35
  
  ******************
  Node Depth Summary
  ******************
  
  ---------------------------------------------------------------------------------
                                 Average  Maximum  Maximum  Time of Max    Reported
                                   Depth    Depth      HGL   Occurrence   Max Depth
  Node                 Type       Meters   Meters   Meters  days hr:min      Meters
  ---------------------------------------------------------------------------------
  WS02001211           JUNCTION     0.98     2.40     7.24     0  00:49        1.78
  WS02001212           JUNCTION     0.75     2.07     7.13     0  00:49        1.54
  WS02001213           JUNCTION     0.98     2.31     7.07     0  00:49        1.85
  WS02003069           JUNCTION     0.93     1.69     6.27     0  00:52        1.68
  WS02003072           JUNCTION     1.00     1.59     5.96     0  00:52        1.58
  WS02003073           JUNCTION     1.22     1.71     5.77     0  00:52        1.70
  WS02003076           JUNCTION     0.96     1.36     5.58     0  00:52        1.36
  WS02003060           JUNCTION     0.82     1.68     6.61     0  00:52        1.67
  WS02003066           JUNCTION     0.49     1.16     6.72     0  00:52        1.16
  WS02003059           JUNCTION     1.05     2.06     6.74     0  00:49        1.92
  WS02003115           JUNCTION     1.93     2.76     9.62     0  00:36        2.73
  WS02003116           JUNCTION     2.08     3.03     9.74     0  00:27        2.94
  WS02003118           JUNCTION     2.07     2.90     9.52     0  00:27        2.90
  WS02003215           JUNCTION     1.96     2.80     9.66     0  00:36        2.80
  WS02003110           JUNCTION     1.59     2.30     9.56     0  00:52        2.30
  WS02003111           JUNCTION     1.70     2.35     9.44     0  00:36        2.35
  WS02005155           JUNCTION     1.56     2.36     9.67     0  00:51        2.35
  WS02005154           JUNCTION     1.32     2.18     9.81     0  00:51        2.18
  WS02005193           JUNCTION     1.40     3.22    11.04     0  00:47        2.96
  WS02005196           JUNCTION     1.37     3.31    11.16     0  00:47        2.93
  WS02003067           JUNCTION     0.82     1.48     6.80     0  00:52        1.48
  WS02004401           JUNCTION     1.43     2.51     8.51     0  00:50        2.45
  WS02004402           JUNCTION     1.43     2.53     8.49     0  00:50        2.47
  WS02004403           JUNCTION     1.41     2.53     8.46     0  00:50        2.46
  WS02004404           JUNCTION     1.46     2.58     8.43     0  00:50        2.53
  WS02004406           JUNCTION     1.40     2.51     8.34     0  00:50        2.49
  WS02004409           JUNCTION     1.17     2.33     8.10     0  00:50        2.29
  WS02004410           JUNCTION     1.07     2.10     7.82     0  00:52        2.10
  WS02004411           JUNCTION     0.99     1.89     7.57     0  00:52        1.87
  WS02004412           JUNCTION     0.91     1.65     7.29     0  00:52        1.64
  WS02004413           JUNCTION     0.95     1.55     7.02     0  00:52        1.54
  WS02004405           JUNCTION     1.44     2.56     8.41     0  00:50        2.51
  WS02006109           JUNCTION     1.88     2.64     9.26     0  00:45        2.64
  WS02006110           JUNCTION     1.70     2.49     9.07     0  00:50        2.48
  WS02006111           JUNCTION     1.11     2.00     8.70     0  00:54        1.99
  WS02006112           JUNCTION     1.72     2.68     8.56     0  00:00        2.68
  WS02006113           JUNCTION     1.19     2.00     8.89     0  00:50        1.99
  WS02006115           JUNCTION     1.40     2.41     8.55     0  00:50        2.38
  WS02006116           JUNCTION     1.45     2.50     8.54     0  00:50        2.45
  WS02006230           JUNCTION     1.96     2.65     9.39     0  00:42        2.65
  WS02006231           JUNCTION     1.56     2.19     9.31     0  01:06        2.19
  WS02006232           JUNCTION     1.61     2.18     9.22     0  00:42        2.18
  WS02006234           JUNCTION     1.45     1.96     9.12     0  00:40        1.96
  WS02006235           JUNCTION     1.43     1.96     9.12     0  00:35        1.93
  WS02006238           JUNCTION     1.44     1.96     9.11     0  00:35        1.93
  WS02006240           JUNCTION     1.24     1.65     8.94     0  00:35        1.63
  WS02006242           JUNCTION     1.22     1.55     8.82     0  00:35        1.55
  WS02006243           JUNCTION     1.06     1.37     8.79     0  01:27        1.37
  WS02006245           JUNCTION     1.00     1.27     8.76     0  01:22        1.27
  WS02006247           JUNCTION     0.98     1.23     8.73     0  01:23        1.22
  WS02006248           JUNCTION     0.89     1.10     8.69     0  00:33        1.10
  WS02006249           JUNCTION     0.89     1.09     8.69     0  00:30        1.09
  WS02006239           JUNCTION     1.35     1.82     9.03     0  00:35        1.78
  WS02006251           JUNCTION     1.33     2.21     9.88     0  00:47        2.16
  WS02006252           JUNCTION     0.93     1.50     9.74     0  00:47        1.50
  WS02006253           JUNCTION     1.57     3.25    10.90     0  00:47        3.14
  WS02006256           JUNCTION     1.83     2.35     9.28     0  00:17        2.35
  WS02004138           JUNCTION     0.12     0.14     7.39     0  00:33        0.14
  WS02004139           JUNCTION     0.91     2.36     7.27     0  00:49        1.70
  WS02004407           JUNCTION     0.81     2.04     8.35     0  00:50        1.96
  WS02006228           JUNCTION     2.09     3.03     9.68     0  00:48        3.03
  WS02006229           JUNCTION     2.18     3.23     9.93     0  00:48        3.22
  WS02006280           JUNCTION     0.92     1.76    10.03     0  00:48        1.74
  WS02006284           JUNCTION     1.10     1.96    10.36     0  00:48        1.94
  WS02006287           JUNCTION     0.85     1.76    10.72     0  00:48        1.74
  WS02003091           JUNCTION     2.79     4.43    10.23     0  00:00        3.91
  WS02003203           JUNCTION     2.74     3.83     9.82     0  00:41        3.83
  WS6145               JUNCTION     0.41     2.33    10.43     0  00:52        2.29
  WS6147               JUNCTION     0.34     2.19    10.47     0  00:51        2.14
  WS6150               JUNCTION     0.33     2.18    10.51     0  00:51        2.12
  WS6152               JUNCTION     0.34     2.18    10.52     0  00:51        2.13
  WS6155               JUNCTION     0.30     2.10    10.50     0  00:51        2.10
  WS6156               JUNCTION     0.29     2.05    10.52     0  00:51        2.05
  WS6136               JUNCTION     0.36     1.90    10.85     0  00:51        1.90
  WS6140               JUNCTION     0.45     2.46    10.40     0  00:52        2.44
  WS6142               JUNCTION     0.40     2.34    10.42     0  00:52        2.30
  WS6325               JUNCTION     0.66     2.74    10.39     0  00:52        2.73
  WS6327               JUNCTION     0.52     2.58    10.39     0  00:52        2.57
  WS6329               JUNCTION     0.48     2.51    10.40     0  00:52        2.50
  WS6332               JUNCTION     0.41     2.52    10.55     0  00:50        2.36
  WS6158               JUNCTION     0.26     2.05    10.59     0  00:51        2.05
  WS6335               JUNCTION     0.40     2.59    10.67     0  00:50        2.32
  WS6338               JUNCTION     0.35     2.55    10.75     0  00:50        2.21
  WS6340               JUNCTION     0.31     2.50    10.84     0  00:50        2.06
  WS6342               JUNCTION     0.24     2.50    11.10     0  00:50        1.81
  WS6135               JUNCTION     0.82     2.89    10.39     0  00:52        2.88
  WS6396               JUNCTION     0.52     2.02     9.57     0  00:52        2.01
  WS6399               JUNCTION     0.32     1.37     8.80     0  00:52        1.36
  WS02003082           JUNCTION     1.35     1.93     7.00     0  00:57        1.92
  WS02003077           JUNCTION     0.46     0.84     5.85     0  00:52        0.84
  WS02003080           JUNCTION     0.89     1.30     6.24     0  00:52        1.30
  WS02003083           JUNCTION     1.73     2.41     7.44     0  00:57        2.40
  WS02003084           JUNCTION     1.86     2.60     7.70     0  00:52        2.59
  WS02003085           JUNCTION     1.94     2.72     7.89     0  00:51        2.71
  WS02003086           JUNCTION     2.18     3.02     8.23     0  00:58        3.02
  WS02003087           JUNCTION     2.44     3.36     8.57     0  00:58        3.35
  WS02003088           JUNCTION     2.63     4.14     9.43     0  00:00        4.07
  WS02003089           JUNCTION     2.75     4.34     9.80     0  00:00        4.02
  WS02003090           JUNCTION     2.96     4.43     9.86     0  00:00        4.05
  WS02003081           JUNCTION     1.10     1.61     6.66     0  00:52        1.60
  WS02003122           JUNCTION     2.25     3.30     9.67     0  00:26        3.10
  WS02003187           JUNCTION     2.28     3.11     9.44     0  00:26        3.11
  WS02003188           JUNCTION     2.26     2.97     9.23     0  00:47        2.97
  WS02003190           JUNCTION     2.25     2.84     9.04     0  00:26        2.84
  WS02003193           JUNCTION     2.23     2.85     9.09     0  00:26        2.85
  WS02003195           JUNCTION     2.25     2.93     9.18     0  00:26        2.93
  WS02003196           JUNCTION     2.36     3.12     9.30     0  00:50        3.11
  WS02003198           JUNCTION     2.39     3.21     9.39     0  00:50        3.19
  WS02003200           JUNCTION     2.15     2.99     9.43     0  00:34        2.93
  WS02003201           JUNCTION     2.41     3.22     9.36     0  00:34        3.22
  WS02003202           JUNCTION     2.56     4.17    10.23     0  00:00        3.48
  WS02004041           JUNCTION     0.64     0.98     5.34     0  00:52        0.98
  WSA6400              JUNCTION     1.11     2.42     8.26     0  00:52        2.42
  WS6400               JUNCTION     0.47     1.69     8.35     0  00:52        1.68
  WSF208               JUNCTION     0.81     1.95     8.04     0  00:52        1.94
  WSF207               JUNCTION     0.70     1.69     7.83     0  00:52        1.69
  WSF206               JUNCTION     0.78     1.74     7.67     0  00:52        1.73
  WSF205               JUNCTION     0.72     1.61     7.51     0  00:52        1.61
  WSF204               JUNCTION     1.24     2.17     7.33     0  00:52        2.17
  WSF203               JUNCTION     0.63     1.36     7.07     0  00:52        1.36
  WSF202               JUNCTION     0.56     1.19     6.92     0  00:52        1.18
  WSF201               JUNCTION     0.48     1.04     6.77     0  00:52        1.02
  WSF200               JUNCTION     0.62     1.45     6.68     0  00:52        1.45
  HS02004901           JUNCTION     0.70     1.42    11.24     0  00:45        1.42
  HS02004881           JUNCTION     0.53     2.15    11.18     0  00:47        1.85
  HS02004876           JUNCTION     0.66     2.12    11.15     0  00:51        2.11
  HS02004870           JUNCTION     0.56     2.10    11.39     0  00:48        2.10
  HS02004862           JUNCTION     0.56     2.00    11.38     0  00:48        2.00
  HS02004856           JUNCTION     0.59     2.07    11.50     0  00:48        2.02
  HS02004852           JUNCTION     0.54     2.12    11.63     0  00:48        1.97
  HS02004848           JUNCTION     0.52     2.07    11.67     0  00:48        1.91
  HS02004842           JUNCTION     0.83     2.22    11.49     0  00:48        2.22
  HS02004837           JUNCTION     0.54     1.98    11.56     0  00:48        1.91
  HS02004830           JUNCTION     0.61     2.03    11.50     0  00:48        1.99
  HS02004824           JUNCTION     0.66     2.01    11.41     0  00:48        2.01
  HS02004817           JUNCTION     1.13     2.44    11.29     0  00:48        2.41
  HS02004807           JUNCTION     0.82     1.92    11.09     0  00:48        1.92
  HS02004802           JUNCTION     0.83     1.83    10.96     0  00:48        1.80
  HS02004799           JUNCTION     0.92     1.76    10.97     0  00:46        1.76
  HS02004792           JUNCTION     0.72     1.60    11.12     0  00:46        1.60
  HS02004788           JUNCTION     0.54     1.42    11.32     0  00:45        1.42
  HS02004785           JUNCTION     0.59     1.49    11.39     0  00:45        1.40
  HS02004777           JUNCTION     0.71     1.48    11.28     0  00:45        1.48
  HS02004770           JUNCTION     0.69     1.42    11.25     0  00:45        1.42
  HS02004480           JUNCTION     0.82     1.70    10.94     0  00:48        1.64
  HS02004479           JUNCTION     0.86     1.71    10.92     0  00:48        1.67
  HS02004478           JUNCTION     0.71     1.61    10.83     0  00:48        1.58
  HS02004053           JUNCTION     0.28     1.90    10.67     0  00:50        1.09
  HS02004052           JUNCTION     0.35     1.49    11.14     0  00:50        1.39
  HS02004049           JUNCTION     0.20     1.05    11.73     0  00:50        0.86
  HS02004048           JUNCTION     0.47     1.70    12.60     0  00:49        1.70
  HS02004046           JUNCTION     0.44     1.67    13.39     0  00:49        1.59
  HS02004043           JUNCTION     0.22     1.68    14.37     0  00:49        1.51
  HS02004041           JUNCTION     0.13     0.38    15.83     0  00:52        0.38
  HS02004038           JUNCTION     0.13     0.34    19.03     0  00:52        0.34
  HS02004036           JUNCTION     0.00     0.00    22.46     0  00:00        0.00
  HS02004034           JUNCTION     0.00     0.00    26.83     0  00:00        0.00
  HS02004028           JUNCTION     0.19     0.51    37.36     0  00:49        0.51
  HS02004027           JUNCTION     0.15     0.34    36.47     0  00:49        0.33
  HS02004026           JUNCTION     0.15     0.35    35.75     0  00:49        0.34
  HS02004024           JUNCTION     0.16     0.42    34.63     0  00:49        0.41
  HS02004022           JUNCTION     0.22     0.80    33.84     0  00:48        0.80
  HS02004021           JUNCTION     0.26     0.81    32.54     0  00:47        0.81
  HS02004019           JUNCTION     0.33     0.80    31.76     0  00:45        0.80
  HS02004018           JUNCTION     0.22     0.60    33.81     0  00:48        0.60
  HS02004017           JUNCTION     0.20     0.53    34.37     0  00:49        0.53
  HS02004013           JUNCTION     0.13     0.43    35.57     0  00:52        0.43
  HS02004010           JUNCTION     0.05     0.17    38.03     0  00:52        0.17
  HS02003174           JUNCTION     0.18     0.45     5.98     0  00:53        0.45
  HS02003171           JUNCTION     0.20     0.50     6.18     0  00:52        0.50
  HS02003170           JUNCTION     0.24     0.47     6.92     0  00:52        0.47
  HS02003168           JUNCTION     0.12     0.31     6.80     0  00:52        0.31
  HS02003166           JUNCTION     0.23     0.48     6.95     0  00:52        0.47
  HS02003162           JUNCTION     0.21     0.42    30.67     0  00:46        0.42
  HS02003160           JUNCTION     0.16     0.37    28.42     0  00:51        0.37
  HS02003150           JUNCTION     0.17     0.39    26.41     0  00:51        0.39
  HS02003148           JUNCTION     0.19     0.50    22.24     0  00:51        0.50
  HS02003145           JUNCTION     0.25     0.81    14.68     0  00:49        0.81
  HS02003143           JUNCTION     0.36     0.80    13.27     0  00:43        0.80
  HS02003138           JUNCTION     0.20     0.49     6.98     0  01:39        0.49
  HS02003136           JUNCTION     1.39     2.28    10.00     0  00:00        2.28
  HS02003125           JUNCTION     1.49     2.37     9.82     0  00:36        2.27
  HS02003122           JUNCTION     1.53     2.45     9.88     0  00:36        2.36
  HS02003119           JUNCTION     1.30     2.51    10.22     0  00:36        2.14
  HS02003116           JUNCTION     0.99     2.38    10.51     0  00:36        1.74
  HS02003111           JUNCTION     0.45     0.84     9.85     0  00:52        0.83
  HS02003108           JUNCTION     0.36     0.92    10.03     0  00:47        0.80
  HS02003100           JUNCTION     0.25     0.75     9.98     0  00:52        0.74
  HS02003088           JUNCTION     0.21     0.73    10.03     0  00:52        0.73
  HS02003084           JUNCTION     0.09     0.59    10.02     0  00:52        0.59
  HS02003079           JUNCTION     0.06     0.51    10.03     0  00:52        0.50
  HS02003077           JUNCTION     0.01     0.29    10.03     0  00:52        0.29
  HS02003065           JUNCTION     0.65     1.62    10.86     0  00:51        1.61
  HS02003056           JUNCTION     0.68     1.76    10.70     0  00:49        1.71
  HS02003053           JUNCTION     0.47     1.66    10.96     0  00:41        1.56
  HS02003042           JUNCTION     0.32     1.69    11.35     0  00:42        1.33
  HS02003039           JUNCTION     0.36     1.74    11.40     0  00:49        1.40
  HS02003036           JUNCTION     0.19     1.41    11.47     0  00:49        1.17
  HS02003028           JUNCTION     0.30     1.40    11.14     0  00:48        1.40
  HS02003021           JUNCTION     0.33     1.55    10.92     0  00:48        1.49
  HS02003018           JUNCTION     0.34     1.48    10.69     0  00:48        1.48
  HS02003017           JUNCTION     0.34     1.48    10.64     0  00:48        1.48
  HS02003013           JUNCTION     0.34     1.47    10.52     0  00:48        1.42
  HS02003010           JUNCTION     0.36     1.46    10.26     0  00:48        1.29
  HS02003007           JUNCTION     0.32     1.30     9.92     0  00:48        1.09
  HS02003004           JUNCTION     0.40     1.05     9.37     0  00:48        0.98
  HS02003001           JUNCTION     0.11     0.29     8.59     0  00:52        0.29
  YS02001738           JUNCTION     0.00     0.00     8.89     0  00:00        0.00
  YS02001739           JUNCTION     0.00     0.00     8.37     0  00:00        0.00
  YS02001742           JUNCTION     0.00     0.00     8.49     0  00:00        0.00
  YS02001745           JUNCTION     0.14     0.34     7.86     0  00:52        0.34
  YS02001748           JUNCTION     0.16     0.53     7.61     0  00:54        0.51
  YS02001751           JUNCTION     0.17     0.79     7.67     0  00:54        0.79
  YS02001754           JUNCTION     0.19     1.77     8.38     0  00:54        1.05
  YS02001762           JUNCTION     0.38     1.84     8.24     0  00:53        1.48
  YS02001765           JUNCTION     0.37     1.88     8.33     0  00:52        1.49
  YS02001767           JUNCTION     0.39     1.89     8.38     0  00:52        1.55
  YS02001770           JUNCTION     0.45     1.95     8.44     0  00:52        1.71
  YS02001774           JUNCTION     0.51     2.05     8.47     0  00:52        1.78
  YS02001779           JUNCTION     0.27     1.68     8.37     0  00:52        1.52
  YS02001882           JUNCTION     0.74     1.83     8.55     0  00:47        1.65
  YS02001884           JUNCTION     0.83     1.93     8.55     0  00:47        1.74
  YS02001759           JUNCTION     0.39     1.80     8.16     0  00:53        1.45
  YS02001887           JUNCTION     0.91     1.93     8.47     0  00:47        1.83
  YS02001890           JUNCTION     0.94     1.81     8.32     0  00:47        1.81
  YS02001898           JUNCTION     0.70     1.70     8.44     0  00:47        1.56
  YS02001901           JUNCTION     0.81     1.70     8.31     0  00:47        1.68
  YS02001904           JUNCTION     0.79     1.64     8.27     0  00:56        1.63
  YS02001907           JUNCTION     1.10     1.96     8.25     0  00:47        1.96
  YS02001910           JUNCTION     0.93     2.05     8.55     0  00:48        1.94
  YS02001915           JUNCTION     0.76     2.00     8.72     0  00:47        1.87
  YS02001918           JUNCTION     0.50     1.81     8.88     0  00:48        1.59
  YS02001920           JUNCTION     0.59     2.13     9.13     0  00:50        1.67
  YS02001923           JUNCTION     0.41     2.03     9.29     0  00:50        1.45
  YS02001926           JUNCTION     0.42     1.90     9.35     0  00:49        1.29
  YS02001929           JUNCTION     0.28     1.78     9.47     0  00:50        1.14
  YS02001932           JUNCTION     0.19     1.77     9.57     0  00:50        1.24
  YS02001935           JUNCTION     0.14     1.75     9.68     0  00:50        1.08
  YS02001757           JUNCTION     0.38     1.83     8.09     0  00:54        1.36
  YS02001895           JUNCTION     0.70     1.70     8.44     0  00:47        1.57
  YS02005679           JUNCTION     0.00     0.00    10.24     0  00:00        0.00
  YS02005559           JUNCTION     0.09     0.18    10.13     0  00:53        0.18
  YS02005651           JUNCTION     0.06     0.17    10.94     0  00:52        0.17
  YS02005670           JUNCTION     0.07     0.18    10.64     0  00:52        0.18
  YS02005547           JUNCTION     0.05     0.14    10.67     0  00:51        0.13
  YS02005549           JUNCTION     0.07     0.20    11.11     0  00:51        0.20
  YS02005550           JUNCTION     0.09     0.23    10.86     0  00:52        0.23
  YS02005551           JUNCTION     0.05     0.13    10.50     0  00:52        0.13
  YS02005553           JUNCTION     0.11     0.26    10.62     0  00:53        0.26
  YS02005554           JUNCTION     0.06     0.13    10.36     0  00:53        0.12
  YS02005556           JUNCTION     0.11     0.25    10.31     0  00:53        0.25
  YS02005557           JUNCTION     0.06     0.13    10.09     0  00:53        0.13
  YS02005560           JUNCTION     0.07     0.14     9.88     0  00:53        0.14
  YS02005562           JUNCTION     0.11     0.23     9.97     0  00:53        0.23
  YS02005563           JUNCTION     0.06     0.13     9.79     0  00:53        0.12
  YS02005565           JUNCTION     0.09     0.19     9.90     0  00:53        0.19
  YS02005566           JUNCTION     0.08     0.16     9.55     0  00:53        0.16
  YS02005568           JUNCTION     0.12     0.26     9.76     0  00:53        0.26
  YS02005569           JUNCTION     0.09     0.18     9.50     0  00:53        0.18
  YS02005598           JUNCTION     0.21     1.07    10.91     0  00:48        1.07
  YS02005600           JUNCTION     0.19     1.02    10.68     0  00:48        1.02
  YS02005602           JUNCTION     0.43     2.15    10.43     0  00:49        2.15
  YS02005603           JUNCTION     0.14     1.16     9.28     0  00:49        0.58
  YS02005609           JUNCTION     0.08     0.19     9.09     0  00:52        0.19
  YS02005653           JUNCTION     0.10     0.68    11.64     0  00:50        0.54
  YS02005654           JUNCTION     0.12     0.55    11.31     0  00:50        0.44
  YS02005655           JUNCTION     0.05     0.13    10.77     0  00:52        0.13
  YS02005595           JUNCTION     0.30     1.36    11.04     0  00:47        1.36
  YS02005658           JUNCTION     0.09     0.28    11.18     0  00:52        0.27
  YS02005659           JUNCTION     0.05     0.13    10.79     0  00:52        0.13
  YS02005661           JUNCTION     0.12     0.50    11.21     0  00:50        0.44
  YS02005662           JUNCTION     0.05     0.12    10.74     0  00:52        0.12
  YS02005664           JUNCTION     0.13     0.43    11.01     0  00:50        0.42
  YS02005665           JUNCTION     0.04     0.11    10.68     0  00:52        0.11
  YS02005668           JUNCTION     0.05     0.13    10.29     0  00:52        0.13
  YS02005667           JUNCTION     0.27     0.70    10.71     0  00:51        0.69
  YS02005571           JUNCTION     0.13     0.28     9.76     0  00:52        0.28
  YS02005572           JUNCTION     0.10     0.20     9.55     0  00:52        0.20
  YS02005576           JUNCTION     0.10     0.21     9.97     0  00:53        0.21
  YS02005577           JUNCTION     0.09     0.19     9.67     0  00:53        0.19
  YS02005579           JUNCTION     0.20     0.95    10.57     0  00:53        0.75
  YS02005580           JUNCTION     0.12     0.58    10.11     0  00:53        0.43
  YS02005582           JUNCTION     0.28     0.86    10.94     0  00:50        0.86
  YS02005583           JUNCTION     0.15     0.82    10.81     0  00:50        0.41
  YS02005612           JUNCTION     0.40     1.30     9.42     0  00:52        1.29
  YS02005615           JUNCTION     0.05     0.13    11.62     0  00:52        0.13
  YS02005616           JUNCTION     0.04     0.10    10.92     0  00:52        0.10
  YS02005618           JUNCTION     0.07     0.20    11.06     0  00:52        0.20
  YS02005619           JUNCTION     0.05     0.12    10.67     0  00:52        0.12
  YS02005621           JUNCTION     0.08     0.24    11.35     0  00:51        0.24
  YS02005622           JUNCTION     0.04     0.10    11.06     0  00:51        0.10
  YS02005625           JUNCTION     0.03     0.09    11.11     0  00:51        0.09
  YS02005627           JUNCTION     0.10     0.26    11.19     0  00:51        0.26
  YS02005628           JUNCTION     0.04     0.10    11.00     0  00:51        0.10
  YS02005630           JUNCTION     0.09     0.27    11.34     0  00:52        0.27
  YS02005631           JUNCTION     0.05     0.12    10.99     0  00:51        0.12
  YS02005633           JUNCTION     0.08     0.24    11.36     0  00:52        0.24
  YS02005634           JUNCTION     0.05     0.13    10.96     0  00:52        0.13
  YS02005636           JUNCTION     0.10     0.29    11.29     0  00:52        0.29
  YS02005637           JUNCTION     0.06     0.14    10.91     0  00:52        0.14
  YS02005639           JUNCTION     0.09     0.24    10.87     0  00:52        0.24
  YS02005640           JUNCTION     0.06     0.14    10.47     0  00:52        0.14
  YS02005642           JUNCTION     0.07     0.19    11.02     0  00:52        0.19
  YS02005644           JUNCTION     0.13     0.67    11.78     0  00:52        0.67
  YS02005645           JUNCTION     0.07     0.20    11.01     0  00:52        0.20
  YS02005647           JUNCTION     0.21     1.03    11.92     0  00:51        1.03
  YS02005648           JUNCTION     0.08     0.23    11.02     0  00:51        0.23
  YS02005650           JUNCTION     0.13     0.52    11.40     0  00:52        0.51
  YS02005671           JUNCTION     0.04     0.09    10.32     0  00:52        0.09
  YS02005673           JUNCTION     0.07     0.20    10.55     0  00:52        0.20
  YS02005674           JUNCTION     0.05     0.13    10.02     0  00:52        0.13
  YS02005676           JUNCTION     0.00     0.00    10.24     0  00:00        0.00
  YS02005680           JUNCTION     0.05     0.13    10.23     0  00:52        0.13
  YS02005682           JUNCTION     0.00     0.00    10.06     0  00:00        0.00
  YS02005683           JUNCTION     0.03     0.08     9.97     0  00:52        0.08
  YS02005376           JUNCTION     0.73     1.01    11.10     0  00:33        1.01
  YS02005378           JUNCTION     1.25     1.62    11.15     0  00:33        1.62
  YS02005381           JUNCTION     1.13     1.57    11.20     0  00:33        1.57
  YS02005624           JUNCTION     0.21     0.40    11.28     0  00:51        0.40
  YS02005384           JUNCTION     0.36     0.78    10.43     0  00:33        0.53
  YS02005677           JUNCTION     0.05     0.14    10.22     0  00:52        0.14
  YSB1105              JUNCTION     0.26     0.54    10.02     0  00:51        0.51
  YSB1106              JUNCTION     0.25     1.88    11.72     0  00:51        0.72
  YSB1109              JUNCTION     0.30     1.81    11.76     0  00:51        1.00
  YSB1112              JUNCTION     0.31     1.95    12.08     0  00:50        1.20
  YSB1115              JUNCTION     0.28     1.90    12.20     0  00:50        1.21
  YSB1118              JUNCTION     0.30     1.80    12.34     0  00:50        1.40
  YSB1121              JUNCTION     0.36     1.70    12.37     0  00:50        1.70
  YSB1124              JUNCTION     0.22     1.60    12.43     0  00:50        1.55
  YSB1128              JUNCTION     0.42     1.85    12.43     0  00:46        1.85
  YSB1132              JUNCTION     0.46     1.90    12.35     0  00:46        1.86
  YSB1228              JUNCTION     0.05     0.14    10.98     0  00:51        0.14
  YSB1202              JUNCTION     0.88     1.50    12.39     0  00:44        1.46
  YSB1135              JUNCTION     0.58     2.00    12.26     0  00:46        1.92
  YSB1138              JUNCTION     0.67     1.90    12.07     0  00:46        1.90
  YSB1141              JUNCTION     0.71     2.00    11.83     0  00:46        1.90
  YSB1145              JUNCTION     0.72     2.00    11.69     0  00:46        1.88
  YSB1148              JUNCTION     0.78     2.00    11.50     0  00:46        1.90
  YSB1151              JUNCTION     0.96     2.08    11.31     0  00:46        2.00
  YSB1154              JUNCTION     1.10     2.10    11.16     0  00:46        2.10
  YSB1198              JUNCTION     0.18     1.60    12.39     0  00:47        1.19
  YSB1192              JUNCTION     0.36     1.90    12.17     0  00:47        1.69
  YSB6556              JUNCTION     0.94     1.80    10.97     0  00:46        1.80
  YSB1205              JUNCTION     1.05     1.65    12.35     0  00:44        1.65
  YSB1209              JUNCTION     1.03     1.65    12.22     0  00:44        1.65
  YSB1212              JUNCTION     0.92     1.60    12.13     0  00:44        1.60
  YSB1215              JUNCTION     0.92     1.70    12.05     0  00:44        1.69
  YSB1218              JUNCTION     0.92     1.75    11.94     0  00:44        1.75
  YSB1221              JUNCTION     0.86     1.63    11.60     0  00:44        1.58
  YSB1224              JUNCTION     0.77     1.33    11.18     0  00:54        1.33
  YSB1195              JUNCTION     0.32     1.90    12.28     0  00:47        1.59
  YSB1189              JUNCTION     0.46     1.80    11.96     0  00:47        1.80
  YSB1186              JUNCTION     0.52     1.94    11.81     0  00:47        1.81
  YSB1183              JUNCTION     0.65     2.05    11.64     0  00:47        1.96
  YSB1180              JUNCTION     0.68     1.95    11.46     0  00:47        1.90
  YSB1177              JUNCTION     0.94     2.05    11.24     0  00:47        2.05
  YSB1174              JUNCTION     0.99     1.95    11.06     0  00:48        1.95
  YSB1171              JUNCTION     1.16     1.95    10.85     0  00:46        1.95
  YS02006553           JUNCTION     1.10     2.03     8.31     0  00:48        1.98
  YS02006561           JUNCTION     0.39     1.27     7.93     0  00:48        0.91
  YS02006562           JUNCTION     0.88     1.91     8.42     0  00:48        1.78
  YS02006556           JUNCTION     1.07     2.07     8.38     0  00:48        1.97
  YS02006558           JUNCTION     1.11     2.14     8.41     0  00:48        2.02
  YS6132               JUNCTION     0.54     2.90    10.22     0  00:50        2.15
  YS6137               JUNCTION     0.27     2.19     9.98     0  00:56        1.23
  YS6189               JUNCTION     0.37     2.24    10.03     0  00:56        1.32
  YS6184               JUNCTION     0.36     2.35    10.24     0  00:52        1.41
  YS6179               JUNCTION     0.31     2.60    10.58     0  00:51        1.35
  YS6176               JUNCTION     0.22     2.40    10.60     0  00:52        1.16
  YS6171               JUNCTION     0.23     2.10    10.51     0  00:51        2.06
  YS6168               JUNCTION     0.25     2.00    10.51     0  00:52        1.99
  YS6164               JUNCTION     0.08     1.90    10.63     0  00:52        1.90
  YS6162               JUNCTION     0.13     2.10    10.75     0  00:52        2.08
  YS6187               JUNCTION     0.41     2.26    10.04     0  00:56        1.38
  YS6363               JUNCTION     0.32     2.73    10.52     0  00:56        1.22
  YS6360               JUNCTION     0.43     2.42    10.22     0  00:56        1.41
  YS6354               JUNCTION     0.42     2.43    10.58     0  00:56        1.78
  YS6351               JUNCTION     0.50     2.50    10.71     0  00:50        2.12
  YS6350               JUNCTION     0.55     2.50    10.72     0  00:50        2.32
  YS6348               JUNCTION     0.51     2.45    10.85     0  00:50        2.45
  YS6344               JUNCTION     0.33     2.28    10.87     0  00:56        2.26
  YS6375               JUNCTION     0.08     0.30     8.73     0  00:52        0.30
  YS6377               JUNCTION     0.15     0.36     8.72     0  00:52        0.36
  YS6381               JUNCTION     0.16     0.42     8.55     0  00:52        0.42
  YS6386               JUNCTION     0.19     0.49     8.47     0  00:52        0.49
  YS6390               JUNCTION     0.41     0.62     8.31     0  00:53        0.62
  YS6394               JUNCTION     0.10     0.25     8.17     0  00:53        0.25
  YS6404               JUNCTION     0.50     3.00    10.23     0  00:50        2.40
  YS6401               JUNCTION     0.16     0.41     7.62     0  00:56        0.40
  YS02004319           JUNCTION     0.30     1.18    20.80     0  00:46        1.18
  YS02004320           JUNCTION     0.00     0.00    22.64     0  01:01        0.00
  YS02004321           JUNCTION     0.00     0.00    26.80     0  01:00        0.00
  YS02004307           JUNCTION     0.16     0.52    11.05     0  00:52        0.52
  YS02004309           JUNCTION     0.72     1.55    13.07     0  00:38        1.55
  YS02004312           JUNCTION     0.47     1.48    14.91     0  00:44        1.48
  YS02004314           JUNCTION     0.35     1.28    16.99     0  00:46        1.28
  YS02004316           JUNCTION     0.35     1.36    19.13     0  00:46        1.36
  YS02001783           JUNCTION     0.60     1.53     7.67     0  00:48        1.24
  YS02001784           JUNCTION     0.58     1.28     7.35     0  00:48        1.13
  YS02001786           JUNCTION     0.47     1.02     7.05     0  00:48        0.88
  YS02001788           JUNCTION     0.35     0.62     6.60     0  00:50        0.62
  YS02001790           JUNCTION     0.40     0.72     6.36     0  00:50        0.71
  YS02001791           JUNCTION     0.24     0.44     5.91     0  00:56        0.43
  YS02001793           JUNCTION     0.13     0.29     5.13     0  00:50        0.28
  YS02003309           JUNCTION     0.59     1.21     9.77     0  00:32        1.04
  YS02003306           JUNCTION     0.70     1.16     9.60     0  00:32        1.16
  YS02003269           JUNCTION     0.13     0.17     7.76     0  00:47        0.17
  YS02003272           JUNCTION     0.37     0.92     8.66     0  00:33        0.58
  YS02003278           JUNCTION     0.73     1.21     9.13     0  00:47        1.21
  YS02003281           JUNCTION     0.80     1.39     9.47     0  00:46        1.39
  YS02003284           JUNCTION     0.89     1.40     9.41     0  00:46        1.40
  YS02003287           JUNCTION     0.84     1.27     9.34     0  00:33        1.27
  YS02003290           JUNCTION     0.70     1.11     9.40     0  00:57        1.11
  YS02003294           JUNCTION     0.85     1.24     9.42     0  00:33        1.24
  YS02003275           JUNCTION     0.54     0.92     8.83     0  00:48        0.91
  YS02003297           JUNCTION     0.83     1.22     9.43     0  00:33        1.22
  YS02003300           JUNCTION     0.78     1.15     9.42     0  00:32        1.15
  YS02003303           JUNCTION     0.76     1.14     9.46     0  00:32        1.14
  YSB1227              JUNCTION     0.01     0.08    10.98     0  00:51        0.08
  CaochengRainPumpOutfall1 OUTFALL      0.00     0.00     6.00     0  00:00        0.00
  JiankangRainPumpOutfall2 OUTFALL      0.00     0.00     6.00     0  00:00        0.00
  JiankangRainPumpOutfall1 OUTFALL      0.00     0.00     6.00     0  00:00        0.00
  CaochengRainPumpOutfall2 OUTFALL      0.00     0.00     6.00     0  00:00        0.00
  YS02005684           OUTFALL      0.03     0.08     8.48     0  00:52        0.08
  YS02005681           OUTFALL      0.05     0.13     9.34     0  00:52        0.13
  YS02005678           OUTFALL      0.05     0.14     8.67     0  00:52        0.14
  YS02005675           OUTFALL      0.05     0.13     8.67     0  00:52        0.13
  YS02005672           OUTFALL      0.04     0.09     8.43     0  00:52        0.09
  YS02005669           OUTFALL      0.05     0.13     8.84     0  00:52        0.13
  YS02005666           OUTFALL      0.04     0.11     8.79     0  00:52        0.11
  YS02005663           OUTFALL      0.05     0.12     8.85     0  00:52        0.12
  YS02005660           OUTFALL      0.05     0.13     8.95     0  00:52        0.13
  YS02005657           OUTFALL      0.00     0.00     8.74     0  00:00        0.00
  YS02005652           OUTFALL      0.06     0.17     8.79     0  00:52        0.17
  YS02005649           OUTFALL      0.08     0.23     8.93     0  00:51        0.23
  YS02005646           OUTFALL      0.07     0.20     8.20     0  00:52        0.20
  YS02005643           OUTFALL      0.07     0.19     8.75     0  00:52        0.19
  YS02005641           OUTFALL      0.06     0.14     8.84     0  00:52        0.14
  YS02005638           OUTFALL      0.06     0.14     8.80     0  00:52        0.14
  YS02005635           OUTFALL      0.05     0.12     8.79     0  00:52        0.12
  YS02005632           OUTFALL      0.04     0.11     8.67     0  00:52        0.11
  YS02005629           OUTFALL      0.04     0.10     8.57     0  00:52        0.10
  YS02005626           OUTFALL      0.03     0.09     8.61     0  00:51        0.09
  YS02005623           OUTFALL      0.04     0.10     8.58     0  00:51        0.10
  YS02005620           OUTFALL      0.05     0.12     8.91     0  00:52        0.12
  YS02005617           OUTFALL      0.04     0.10     8.94     0  00:52        0.10
  YSB1103              OUTFALL      0.26     0.60     8.60     0  00:51        0.60
  YSB1229              OUTFALL      0.05     0.14     8.94     0  00:51        0.14
  YS02005548           OUTFALL      0.05     0.14     9.13     0  00:51        0.13
  YS02005552           OUTFALL      0.05     0.13     8.76     0  00:52        0.13
  YS02005555           OUTFALL      0.06     0.12     8.86     0  00:53        0.12
  YS02005558           OUTFALL      0.06     0.13     8.83     0  00:53        0.13
  YS02005561           OUTFALL      0.07     0.14     8.82     0  00:53        0.14
  YS02005564           OUTFALL      0.06     0.12     8.60     0  00:53        0.12
  YS02005567           OUTFALL      0.08     0.16     8.69     0  00:53        0.16
  YS02005570           OUTFALL      0.09     0.18     8.90     0  00:53        0.18
  YS02005574           OUTFALL      0.10     0.20     9.04     0  00:52        0.20
  YS02005578           OUTFALL      0.09     0.19     8.97     0  00:53        0.19
  WS02005134           OUTFALL      0.00     0.00     8.74     0  00:00        0.00
  YS02005581           OUTFALL      0.12     0.30     9.10     0  00:53        0.30
  YS02005584           OUTFALL      0.13     0.30     9.26     0  00:50        0.30
  YS02005593           OUTFALL      0.23     0.28     9.00     0  01:03        0.28
  YS02005596           OUTFALL      0.14     0.30     8.84     0  00:47        0.30
  YS02005374           OUTFALL      0.12     0.30     8.54     0  00:48        0.30
  YS02005375           OUTFALL      0.12     0.30     8.69     0  00:48        0.30
  YS02005607           OUTFALL      0.12     0.30     7.53     0  00:48        0.30
  YS02005610           OUTFALL      0.08     0.19     8.81     0  00:52        0.19
  YS02005613           OUTFALL      0.13     0.30     8.58     0  00:50        0.30
  HS02003172           OUTFALL      0.18     0.45     5.90     0  00:53        0.45
  YS6395               OUTFALL      0.10     0.25     6.67     0  00:53        0.25
  YS6405               OUTFALL      0.16     0.39     3.84     0  00:55        0.39
  WSC                  OUTFALL      0.59     0.80     5.00     0  00:41        0.80
  JiankangQianchi      STORAGE      3.01     4.21     5.01     0  00:49        4.20
  CaochengTiaoxuchi    STORAGE      0.94     1.31     6.81     0  01:07        1.31
  XierchiQianchi       STORAGE      7.03     7.47     5.47     0  02:02        7.47
  
  
  *******************
  Node Inflow Summary
  *******************
  
  -------------------------------------------------------------------------------------------------
                                  Maximum  Maximum                  Lateral       Total        Flow
                                  Lateral    Total  Time of Max      Inflow      Inflow     Balance
                                   Inflow   Inflow   Occurrence      Volume      Volume       Error
  Node                 Type           LPS      LPS  days hr:min    10^6 ltr    10^6 ltr     Percent
  -------------------------------------------------------------------------------------------------
  WS02001211           JUNCTION      7.35   228.60     0  00:48      0.0538        1.18       4.136
  WS02001212           JUNCTION      0.00   233.66     0  01:23           0        1.14       2.312
  WS02001213           JUNCTION      0.00   246.43     0  01:23           0        1.11       3.205
  WS02003069           JUNCTION      0.32  2519.81     0  00:52     0.00234        10.1       0.671
  WS02003072           JUNCTION      0.00  2519.96     0  00:52           0        10.1       0.584
  WS02003073           JUNCTION      1.82  3087.81     0  00:52      0.0133        13.4       0.286
  WS02003076           JUNCTION      0.00  3087.77     0  00:52           0        13.3       0.306
  WS02003060           JUNCTION     16.53  2519.74     0  00:52       0.121        10.2       0.544
  WS02003066           JUNCTION      0.00  2310.10     0  00:52           0        9.06       0.108
  WS02003059           JUNCTION      0.00   252.26     0  01:23           0        1.09       5.230
  WS02003115           JUNCTION      0.00   477.10     0  01:02           0        1.04       0.510
  WS02003116           JUNCTION      0.00   259.35     0  00:27           0        1.06       0.770
  WS02003118           JUNCTION      0.08   217.35     0  00:35    2.29e-06        1.06       1.423
  WS02003215           JUNCTION      0.17  1981.53     0  00:52    2.01e-05        2.67       1.008
  WS02003110           JUNCTION      0.18   388.71     0  00:52     0.00132       0.524       1.421
  WS02003111           JUNCTION      1.51   867.16     0  00:52      0.0107        1.49       0.479
  WS02005155           JUNCTION      0.38   388.48     0  00:52     0.00279       0.523       1.882
  WS02005154           JUNCTION    387.98   387.98     0  00:52       0.518        0.52       1.128
  WS02005193           JUNCTION      0.00   145.46     0  00:31           0      0.0153     135.654
  WS02005196           JUNCTION      0.00    93.45     0  00:31           0     0.00575     631.653
  WS02003067           JUNCTION      0.00  1870.34     0  00:51           0        7.16       0.200
  WS02004401           JUNCTION      0.00  1107.94     0  01:32           0        5.62       0.557
  WS02004402           JUNCTION      0.00  1108.40     0  01:32           0        5.59       0.502
  WS02004403           JUNCTION      0.00  1108.52     0  01:32           0        5.57       0.434
  WS02004404           JUNCTION      0.16  1109.04     0  01:32     0.00119        5.55       0.299
  WS02004406           JUNCTION      0.00  1109.43     0  01:32           0        5.52       0.743
  WS02004409           JUNCTION      0.06  1825.36     0  00:50    7.57e-05        7.87       0.441
  WS02004410           JUNCTION      0.00  1870.14     0  00:51           0        7.92       0.448
  WS02004411           JUNCTION      0.00  1870.34     0  00:51           0        7.27       0.470
  WS02004412           JUNCTION      0.00  1870.07     0  00:51           0        7.24       0.470
  WS02004413           JUNCTION      0.00  1870.22     0  00:51           0        7.21       0.605
  WS02004405           JUNCTION      0.17  1109.75     0  01:32    0.000401        5.54       0.437
  WS02006109           JUNCTION      1.93  1308.01     0  00:00     0.00962        6.38       0.348
  WS02006110           JUNCTION      0.31  1108.00     0  01:32    0.000193        5.75      -0.340
  WS02006111           JUNCTION      0.04  1176.04     0  00:00    7.94e-06        5.74      -0.313
  WS02006112           JUNCTION      0.48  2307.30     0  00:00    2.39e-05        5.76       0.308
  WS02006113           JUNCTION      0.03  1108.15     0  01:32    2.02e-06        5.73      -0.407
  WS02006115           JUNCTION      0.00  2155.86     0  00:00           0        5.66       0.578
  WS02006116           JUNCTION      0.31  1107.92     0  01:32    0.000348        5.64       0.465
  WS02006230           JUNCTION     10.38  1027.46     0  00:50      0.0753        3.22       0.504
  WS02006231           JUNCTION      0.51   453.29     0  01:11     0.00128        1.93       0.862
  WS02006232           JUNCTION      0.20   453.50     0  01:17    7.04e-05        1.94       0.924
  WS02006234           JUNCTION      0.12   453.34     0  01:13    3.72e-06        1.95       0.629
  WS02006235           JUNCTION      0.27   415.16     0  00:51    0.000475        2.04       0.536
  WS02006238           JUNCTION      0.00   415.37     0  01:33           0        2.02       0.372
  WS02006240           JUNCTION      0.00   415.09     0  00:51           0        2.05       0.804
  WS02006242           JUNCTION      0.27   415.15     0  00:51    0.000117        2.07       0.956
  WS02006243           JUNCTION      0.62   278.11     0  01:35      0.0012        1.57       1.033
  WS02006245           JUNCTION      0.00   282.97     0  00:29           0        1.58       0.847
  WS02006247           JUNCTION      0.00   294.75     0  00:29           0        1.59       0.749
  WS02006248           JUNCTION      0.00   345.33     0  00:40           0        1.93       0.572
  WS02006249           JUNCTION      0.00  1378.86     0  00:52           0        5.46       0.310
  WS02006239           JUNCTION      0.00   415.23     0  00:51           0        2.03       0.625
  WS02006251           JUNCTION      0.08  1707.29     0  00:52    0.000564        5.68       0.325
  WS02006252           JUNCTION      0.00   726.47     0  00:52           0        2.35       0.017
  WS02006253           JUNCTION     41.45  1707.16     0  00:52      0.0584        4.07       0.508
  WS02006256           JUNCTION      0.00   300.00     0  00:35           0        1.57       0.064
  WS02004138           JUNCTION      0.00   190.00     0  00:29           0        1.17       0.256
  WS02004139           JUNCTION      0.32   190.32     0  00:33     0.00235        1.17       3.414
  WS02004407           JUNCTION      0.06  1824.74     0  00:50    6.29e-05        7.92       0.334
  WS02006228           JUNCTION      1.17  1289.54     0  00:50    0.000805        6.36       0.236
  WS02006229           JUNCTION      0.91  2306.83     0  00:50    0.000706        9.35       0.276
  WS02006280           JUNCTION      0.23  2306.68     0  00:50    0.000312        9.16       0.023
  WS02006284           JUNCTION      0.16  2306.47     0  00:50    0.000723        9.18       0.149
  WS02006287           JUNCTION      0.18  2306.54     0  00:50    6.43e-05        9.19       0.105
  WS02003091           JUNCTION      0.45  1194.64     0  00:00    0.000915        3.42      -1.191
  WS02003203           JUNCTION      0.34  2264.56     0  00:00    0.000137        5.24       0.208
  WS6145               JUNCTION      0.23   233.88     0  00:50    0.000338        0.09       0.376
  WS6147               JUNCTION      0.00   234.76     0  00:50           0       0.079       0.217
  WS6150               JUNCTION      0.15   235.45     0  00:50    0.000398      0.0681       0.486
[...]
  WS02005155WS02003110        1.53      1.53      1.53      0.16         0.18
  WS02003203WS02003091        1.66      1.66      1.66      1.60         1.59
  WS02003091WS02003090        1.68      1.68      1.73      0.01         0.01
  WS02003090WS02003089        1.70      1.70      1.72      1.78         0.01
  WS02003089WS02003088        1.70      1.70      1.72      1.63         1.63
  WS02003088WS02003087        1.72      1.73      1.72      1.78         1.72
  WS02003087WS02003086        1.66      1.66      1.73      1.71         0.01
  WS02003086WS02003085        1.65      1.65      1.70      1.76         0.01
  WS02003085WS02003084        1.66      1.67      1.66      1.68         1.65
  WS02003084WS02003083        1.65      1.67      1.65      1.86         1.65
  WS02003083WS02003082        1.64      1.64      1.67      1.75         0.01
  WS02003082WS02003081        1.63      1.64      1.63      1.75         1.63
  WS02003081WS02003080        1.63      1.63      1.63      1.64         1.63
  WS02003080WS02003077        0.57      0.57      1.63      1.64         0.01
  WS02003073WS02003076        0.67      0.67      1.40      0.23         0.01
  HS02004901HS02004770        0.68      0.68      0.69      0.02         0.01
  HS02004876HS02004881        0.69      0.71      0.69      1.56         0.69
  HS02004870HS02004876        0.62      0.62      0.71      0.01         0.01
  HS02004049HS02004052        0.15      0.15      0.17      0.01         0.01
  HS02004048HS02004049        0.25      0.36      0.25      0.42         0.25
  HS02004046HS02004048        0.16      0.16      0.36      0.01         0.01
  HS02004043HS02004046        0.12      0.12      0.19      0.01         0.01
  HS02004041HS02004043        0.01      0.01      0.12      0.01         0.01
  HS02004028HS02004027        0.01      0.14      0.01      0.16         0.01
  HS02003143HS02003065        0.54      0.54      0.74      0.01         0.01
  HS02004842HS02004848        0.54      0.54      0.76      0.01         0.01
  HS02004837HS02004842        0.58      0.58      0.76      0.01         0.01
  HS02004830HS02004837        0.58      0.58      0.63      0.01         0.01
  HS02004824HS02004830        0.63      0.63      0.68      0.01         0.01
  HS02004817HS02004824        0.68      0.68      1.49      0.01         0.01
  HS02004770HS02004777        0.68      0.68      0.69      0.01         0.01
  HS02004799HS02004480        0.85      0.85      0.93      0.94         0.01
  HS02004792HS02004799        0.79      0.79      0.93      0.01         0.01
  HS02004788HS02004792        0.63      0.63      0.79      0.01         0.01
  HS02004785HS02004788        0.63      0.64      0.63      1.52         0.55
  HS02004777HS02004785        0.64      0.64      0.69      0.01         0.01
  HS02004480HS02004478        0.78      0.85      0.78      1.64         0.78
  HS02004479HS02004480        0.85      0.85      0.89      0.01         0.01
  HS02003013HS02003010        0.35      0.35      0.39      0.22         0.22
  HS02003010HS02003007        0.33      0.33      0.34      0.37         0.33
  HS02003007HS02003004        0.34      0.34      0.43      0.18         0.18
  HS02003004HS02003001        0.01      0.43      0.01      1.00         0.01
  HS02003065HS02003056        0.73      0.73      0.87      0.01         0.01
  HS02003042HS02003053        0.29      0.29      0.69      0.01         0.01
  HS02003028HS02003021        0.22      0.22      0.29      0.01         0.01
  HS02003021HS02003018        0.32      0.32      0.33      0.10         0.10
  HS02003018HS02003017        0.33      0.33      0.34      0.08         0.07
  HS02003017HS02003013        0.34      0.34      0.35      0.27         0.25
  HS02004862HS02004870        0.60      0.60      0.62      0.24         0.21
  HS02004848HS02004852        0.54      0.54      0.58      0.02         0.01
  HS02004856HS02004862        0.55      0.55      0.60      0.01         0.01
  HS02004852HS02004856        0.58      0.58      0.60      0.02         0.01
  HS02004024HS02004022        0.01      0.01      0.18      0.01         0.01
  HS02004022HS02004021        0.18      0.18      0.28      0.01         0.01
  HS02004021HS02004019        0.28      0.28      0.36      0.21         0.21
  HS02004019HS02003162        0.01      0.36      0.01      0.39         0.01
  HS02004052HS02004053        0.16      0.17      0.16      0.19         0.16
  HS02003122HS02003125        1.45      1.45      1.45      0.15         0.18
  HS02003119HS02003122        1.43      1.43      1.45      0.01         0.01
  HS02003116HS02003119        1.09      1.09      1.43      0.01         0.01
  HS02003111HS02003116        0.01      0.01      1.17      0.01         0.01
  HS02004018HS02004019        0.21      0.21      0.36      0.01         0.01
  HS02003056HS02003136        0.75      0.75      1.47      0.01         0.01
  HS02004017HS02004018        0.19      0.19      0.21      0.01         0.01
  HS02004013HS02004017        0.01      0.01      0.19      0.02         0.01
  HS02004802HS02004478        0.79      0.79      0.86      0.17         0.01
  HS02004478WS02006287        0.65      0.65      0.84      0.01         0.01
  HS02003148HS02003145        0.01      0.01      0.13      0.01         0.01
  HS02003145HS02003143        0.13      0.13      0.51      0.12         0.11
  HS02003136WS02003203        1.48      1.48      1.60      0.01         0.01
  HS02003084HS02003088        0.01      0.01      0.04      0.01         0.01
  HS02003108HS02003111        0.15      0.15      0.36      0.01         0.01
  HS02003100HS02003108        0.08      0.08      0.15      0.01         0.01
  HS02003088HS02003100        0.06      0.06      0.08      0.01         0.01
  HS02004817HS02004807        0.83      0.83      1.49      0.01         0.01
  HS02004807HS02004802        0.83      0.83      0.85      0.32         0.32
  HS02003053HS02003056        0.69      0.69      0.87      0.01         0.01
  HS02003039HS02003042        0.35      0.36      0.39      0.22         0.02
  HS02003036HS02003039        0.17      0.17      0.22      0.01         0.01
  YS02001759YS02001757        0.10      0.10      0.10      0.16         0.10
  YS02001762YS02001759        0.10      0.11      0.10      0.16         0.10
  YS02001765YS02001762        0.11      0.11      0.11      0.07         0.06
  YS02001770YS02001767        0.11      0.13      0.11      0.63         0.11
  YS02001774YS02001770        0.12      0.12      0.15      0.01         0.01
  YS02001779YS02001774        0.08      0.08      0.15      0.01         0.01
  YS02001767YS02001765        0.11      0.11      0.11      0.19         0.10
  YS02006561YS02001783        0.43      0.43      0.62      0.01         0.01
  YS02001783YS02001784        0.60      0.62      0.60      0.78         0.60
  YS02001784YS02001785        0.49      0.60      0.49      1.07         0.49
  YS02001790YS02001791        0.01      0.01      0.01      0.59         0.01
  YS02001910YS02001907        0.65      0.65      0.84      0.01         0.01
  YS02001786YS02001788        0.01      0.49      0.01      0.90         0.01
  YS02001915YS02001910        0.56      0.56      0.65      0.01         0.01
  YS02001918YS02001915        0.48      0.48      0.56      0.01         0.01
  YS02001923YS02001920        0.41      0.41      0.49      0.01         0.01
  YS02001926YS02001923        0.16      0.16      0.18      0.01         0.01
  YS02001929YS02001926        0.02      0.02      0.18      0.01         0.01
  YS02001932YS02001929        0.01      0.01      0.02      0.01         0.01
  YS02001935YS02001932        0.01      0.01      0.01      0.01         0.01
  YS02001920YS02001918        0.48      0.48      0.49      0.01         0.01
  YS02003290YS02003287        1.42      1.42      1.57      0.01         0.01
  YS02003294YS02003290        1.44      1.44      1.62      0.02         0.01
  YS02003297YS02003294        1.60      1.60      1.61      0.35         0.32
  YS02003275YS02003272        1.16      1.30      1.16      1.55         1.16
  YS02003300YS02003297        1.50      1.50      1.58      0.01         0.01
  YS02003303YS02003300        1.40      1.40      1.54      0.01         0.01
  YS02005568YS02005569        0.01      0.01      0.01      0.06         0.01
  YS02005582YS02005583        0.24      0.48      0.24      0.68         0.24
  YS02003272YS02003269        0.01      1.24      0.01      1.54         0.01
  YS02003278YS02003275        1.35      1.59      1.35      1.69         1.35
  YS02003281YS02003278        1.54      1.54      1.58      1.34         1.34
  YS02003284YS02003281        1.54      1.54      1.58      0.99         0.32
  YS02003287YS02003284        1.56      1.56      1.60      0.01         0.05
  YS02003306YS02003303        1.34      1.34      1.50      0.45         0.45
  YS02003309YS02003306        1.21      1.21      1.34      0.01         0.01
  YS02005600YS02005375        0.18      0.18      0.19      0.19         0.18
  YS02005384YS02005593        0.01      1.25      0.01      1.30         0.01
  YS02005595YS02005596        0.28      0.29      0.28      0.31         0.28
  YS02005612YS02005613        0.09      0.09      0.94      0.29         0.01
  YS02005553YS02005554        0.01      0.01      0.01      0.11         0.01
  YS02005556YS02005557        0.01      0.01      0.01      0.12         0.01
  YS02005562YS02005563        0.01      0.01      0.01      0.04         0.01
  YS02005571YS02005572        0.01      0.01      0.01      0.22         0.01
  YS02005579YS02005580        0.08      0.32      0.08      0.51         0.08
  YS02005580YS02005581        0.03      0.08      0.03      0.13         0.03
  YS02005583YS02005584        0.24      0.24      0.25      0.25         0.24
  YS02006553YS02006556        0.75      0.75      0.87      0.01         0.01
  YS02006556YS02006558        0.81      0.81      0.89      0.01         0.01
  YSB6556YSB1171              0.96      0.96      1.57      0.01         0.01
  YSB1202YSB1205              1.30      1.30      1.32      0.01         0.01
  YSB1205YSB1209              1.32      1.32      1.32      1.02         0.97
  YSB1209YSB1212              1.30      1.32      1.30      1.41         1.30
  YSB1212YSB1215              1.30      1.30      1.30      0.75         0.74
  YSB1215YSB1218              1.30      1.30      1.30      0.83         0.81
  YSB1218YSB1221              1.30      1.30      1.30      1.11         1.11
  YSB1221YSB1224              1.30      1.30      1.31      1.30         1.30
  YSB1224YSB1105              0.87      1.34      0.87      1.42         0.87
  YSB1189YSB1186              0.57      0.57      0.68      0.12         0.13
  YS02001907YS02006553        1.09      1.09      1.17      0.01         0.01
  YS02006562YS02006558        0.62      0.62      0.89      0.01         0.01
  YS02006558YS02006561        0.52      0.74      0.52      1.02         0.52
  YS6184YS6187                0.12      0.12      0.14      0.05         0.07
  YS6360YS6363                0.10      0.14      0.10      0.68         0.10
  YS6354YS6360                0.19      0.20      0.21      0.20         0.18
  YS6351YS6354                0.20      0.22      0.20      0.40         0.20
  YS6350YS6351                0.22      0.25      0.22      0.70         0.22
  YS6348YS6350                0.23      0.23      0.25      0.21         0.20
  YS6344YS6348                0.23      0.23      0.29      0.01         0.01
  YS6363YS6132                0.10      0.10      0.24      0.01         0.01
  YS6137YS6132                0.17      0.17      0.35      0.01         0.01
  YS6189YS6137                0.17      0.17      0.19      1.36         0.01
  YS6187YS6189                0.12      0.12      0.14      0.27         0.01
  YS6179YS6184                0.11      0.11      0.12      0.01         0.01
  YS6176YS6179                0.04      0.04      0.11      0.01         0.01
  YS6171YS6176                0.07      0.07      0.12      0.01         0.01
  YS6168YS6171                0.06      0.06      0.07      0.03         0.02
  YS6164YS6168                0.01      0.01      0.06      0.01         0.01
  YS6162YS6164                0.06      0.06      0.08      0.01         0.01
  YS6132YS6404                0.01      0.14      0.01      0.28         0.01
  YSB1106YSB1105              0.01      0.14      0.01      0.18         0.01
  YSB1109YSB1106              0.14      0.19      0.14      0.33         0.14
  YSB1112YSB1109              0.19      0.20      0.19      0.23         0.19
  YSB1115YSB1112              0.18      0.18      0.20      0.14         0.13
  YSB1118YSB1115              0.21      0.21      0.21      0.23         0.21
  YSB1121YSB1118              0.21      0.24      0.21      0.33         0.21
  YSB1124YSB1121              0.21      0.21      0.24      0.01         0.01
  YSB1105YSB1103              0.01      0.01      0.11      0.11         0.01
  YS02001751YS02001754        0.01      0.01      0.01      0.01         0.01
  YS02001754YS02001757        0.01      0.01      0.10      0.01         0.01
  YS02001882YS02001884        0.57      0.57      0.58      0.01         0.01
  YS02001884YS02001887        0.60      0.60      0.61      0.01         0.01
  YS02001890YS02001895        0.56      0.56      0.66      0.01         0.01
  YS02001895YS02001898        0.55      0.55      0.56      0.01         0.01
  YS02001898YS02001901        0.56      0.56      0.60      0.01         0.01
  YS02001901YS02001904        0.59      0.59      0.60      0.01         0.01
  YS02001904YS02001907        0.59      0.59      0.87      0.01         0.01
  YS02001887YS02001890        0.63      0.63      0.64      0.15         0.01
  YS02004309YS02004307        0.14      0.87      0.14      0.85         0.14
  YS02004319YS02004316        0.33      0.33      0.35      0.01         0.01
  YS02005376YS02005378        1.57      1.57      1.80      0.01         0.01
  YS02005378YS02005381        1.76      1.76      1.80      0.41         0.01
  YS02005381YS02005384        1.25      1.25      1.76      1.78         0.01
  YS02005598YS02005374        0.19      0.19      0.21      0.21         0.19
  YS02005602YS02005603        0.16      0.43      0.16      0.56         0.16
  YS02005603YS02005607        0.16      0.16      0.17      0.17         0.16
  YS02005624YS02005625        0.01      0.01      0.20      0.01         0.01
  YS02005630YS02005631        0.01      0.01      0.01      0.04         0.01
  YS02005636YS02005637        0.01      0.01      0.01      0.07         0.01
  YS02005627YS02005628        0.01      0.01      0.01      0.21         0.01
  YS02005644YS02005645        0.01      0.11      0.01      0.14         0.01
  YS02005650YS02005651        0.01      0.09      0.01      0.18         0.01
  YS02005653YS02005654        0.07      0.07      0.08      0.07         0.07
  YS02005654YS02005655        0.01      0.08      0.01      0.16         0.01
  YS02005658YS02005659        0.01      0.01      0.01      0.05         0.01
  YS02005661YS02005662        0.01      0.07      0.01      0.18         0.01
  YS02005664YS02005665        0.01      0.08      0.01      0.42         0.01
  YS02005667YS02005668        0.01      0.01      0.48      0.11         0.01
  YS02005647YS02005648        0.01      0.24      0.01      0.37         0.01
  YS02004312YS02004309        0.56      0.56      0.87      0.01         0.01
  YS02004314YS02004312        0.37      0.37      0.56      0.01         0.01
  YS02004316YS02004314        0.35      0.35      0.37      0.29         0.29
  YS02004320YS02004319        0.01      0.01      0.25      0.01         0.01
  YS6404YS6401                0.01      0.01      0.01      0.66         0.01
  YSB1132YSB1135              0.56      0.56      0.62      0.01         0.01
  YSB1135YSB1138              0.62      0.62      0.66      0.01         0.01
  YSB1138YSB1141              0.66      0.66      0.74      0.39         0.39
  YSB1141YSB1145              0.72      0.72      0.75      0.37         0.35
  YSB1148YSB1151              0.83      0.83      1.07      0.01         0.01
  YSB1151YSB1154              0.93      0.93      1.24      0.01         0.01
  YSB1154YSB6556              0.96      0.96      1.24      0.39         0.01
  YSB1128YSB1132              0.54      0.54      0.56      0.01         0.01
  YSB1145YSB1148              0.75      0.75      0.83      0.01         0.01
  YSB1198YSB1195              0.23      0.23      0.51      0.01         0.01
  YSB1195YSB1192              0.51      0.51      0.54      0.01         0.01
  YSB1192YSB1189              0.54      0.54      0.57      0.01         0.01
  YSB1186YSB1183              0.62      0.62      0.74      0.01         0.01
  YSB1183YSB1180              0.74      0.74      0.78      0.16         0.17
  YSB1180YSB1177              0.78      0.78      1.12      0.01         0.01
  YSB1177YSB1174              1.12      1.12      1.38      0.17         0.18
  YSB1174YSB1171              1.07      1.07      1.52      0.13         0.14
  YSB1171HS02004479           0.82      0.82      1.21      0.01         0.01
  YS02004307HS02004052        0.01      0.01      0.17      0.01         0.01
  HS02004881HS02006253        0.69      0.69      1.49      0.01         0.01
  WS0200404049WS6136          0.15      0.15      0.24      0.01         0.01
  HS02003125WS02003215        1.45      1.45      1.47      0.01         0.01
  YS02001793JiankangQianchi        0.01      0.01      2.02      0.01         0.01
  YS02001757CaochengTiaoxuchi        0.09      0.10      0.72      0.08         0.05
  WS02004041WS6409            1.04      1.04      1.13      1.12         1.04
  WSF200WS02003060            0.24      0.24      0.50      0.01         0.01
  HS02004053WS02004407        0.16      0.16      1.08      0.01         0.01
  HS02003036HS02003028        0.17      0.17      0.27      0.01         0.01
  
  
  ***************
  Pumping Summary
  ***************
  
  ---------------------------------------------------------------------------------------------------------
                                                  Min       Avg       Max     Total     Power    % Time Off
                        Percent   Number of      Flow      Flow      Flow    Volume     Usage    Pump Curve
  Pump                 Utilized   Start-Ups       LPS       LPS       LPS  10^6 ltr     Kw-hr    Low   High
  ---------------------------------------------------------------------------------------------------------
  CaochengSewagePump1     90.94           1      0.00    200.00    200.00     1.332     10.09    0.0    0.0
  CaochengSewagePump2     56.60           1      0.00    200.00    200.00     0.829      6.57    0.0    0.0
  CaochengRainPump1       52.91           1      0.00    683.00    683.00     2.646      3.88    0.0   39.7
  CaochengRainPump2        0.00           0      0.00      0.00      0.00     0.000      0.00    0.0    0.0
  JiankangSewagePump      71.29           1      0.00    300.00    300.00     1.566     23.56    0.0    0.0
  JiankangRainPump1       32.72           4      0.00   1000.00   1000.00     2.396     15.64    0.0    0.0
  JiankangRainPump2        0.00           0      0.00      0.00      0.00     0.000      0.00    0.0    0.0
  XierchiSewagePump1      91.80           1      0.00     95.00     95.00     0.638      3.95    0.0    0.0
  XierchiSewagePump2      76.20           1      0.00     95.00     95.00     0.530      3.11    0.0    0.0
  XierchiSewagePump3       0.00           0      0.00      0.00      0.00     0.000      0.00    0.0    0.0
  XierchiSewagePump4       0.00           0      0.00      0.00      0.00     0.000      0.00    0.0    0.0
  

  Analysis begun on:  Mon Nov 21 02:52:00 2022
  Analysis ended on:  Mon Nov 21 03:24:25 2022
  Total elapsed time: 00:32:25