
  EPA STORM WATER MANAGEMENT MODEL - VERSION 5.1 (Build 5.3.0.dev0)
  --------------------------------------------------------------

  WARNING 04: minimum elevation drop used for Conduit WS02004404WS02004405
  WARNING 03: negative offset ignored for Link YS02001904YS02001907
  
  *********************************************************
  NOTE: The summary statistics displayed in this report are
  based on results found at every computational time step,  
  not just on results from each reporting time step.
  *********************************************************
  
  ****************
  Analysis Options
  ****************
  Flow Units ............... LPS
  Process Models:
    Rainfall/Runoff ........ YES
    RDII ................... NO
    Snowmelt ............... NO
    Groundwater ............ NO
    Flow Routing ........... YES
    Ponding Allowed ........ NO
    Water Quality .......... NO
  Infiltration Method ...... HORTON
  Flow Routing Method ...... DYNWAVE
  Surcharge Method ......... EXTRAN
  Starting Date ............ 03/31/2017 00:00:00
  Ending Date .............. 03/31/2017 03:00:00
  Antecedent Dry Days ...... 8.0
  Report Time Step ......... 00:00:30
  Wet Time Step ............ 00:01:00
  Dry Time Step ............ 00:01:00
  Routing Time Step ........ 30.00 sec
  Variable Time Step ....... YES
  Maximum Trials ........... 8
  Number of Threads ........ 6
  Head Tolerance ........... 0.001500 m
  
  
  **************************        Volume         Depth
  Runoff Quantity Continuity     hectare-m            mm
  **************************     ---------       -------
  Initial LID Storage ......         0.094         0.800
  Total Precipitation ......         8.786        74.557
  Evaporation Loss .........         0.000         0.000
  Infiltration Loss ........         0.609         5.167
  Surface Runoff ...........         5.818        49.368
  LID Drainage .............         0.509         4.320
  Final Storage ............         1.961        16.638
  Continuity Error (%) .....        -0.181
  
  
  **************************        Volume        Volume
  Flow Routing Continuity        hectare-m      10^6 ltr
  **************************     ---------     ---------
  Dry Weather Inflow .......         0.171         1.708
  Wet Weather Inflow .......         6.303        63.035
  Groundwater Inflow .......         0.000         0.000
  RDII Inflow ..............         0.000         0.000
  External Inflow ..........         0.032         0.316
  External Outflow .........         3.845        38.446
  Flooding Loss ............         2.453        24.529
  Evaporation Loss .........         0.000         0.000
  Exfiltration Loss ........         0.000         0.000
  Initial Stored Volume ....         0.303         3.031
  Final Stored Volume ......         0.542         5.425
  Continuity Error (%) .....        -0.457
  
  
  *************************
  Highest Continuity Errors
  *************************
  Node WS02005193 (57.01%)
  Node YS02001884 (23.65%)
  Node YS02001774 (13.33%)
  Node YS6162 (12.48%)
  Node YS02004320 (10.99%)
  
  
  ***************************
  Time-Step Critical Elements
  ***************************
  Link YS02005655YS02005657 (33.40%)
  Link WS02006252WS02006251 (26.36%)
  Link WS02004041WS6409 (24.27%)
  Link WS02006280WS02006229 (1.79%)
  Link WS02003073WS02003076 (1.62%)
  
  
  ********************************
  Highest Flow Instability Indexes
  ********************************
  Link YS02005562YS02005563 (63)
  Link WS02006238WS02006235 (61)
  Link WS02003200WS02003201 (54)
  Link WS02003215WS02003116 (53)
  Link WS02003203WS02003091 (53)
  
  
  *************************
  Routing Time Step Summary
  *************************
  Minimum Time Step           :     0.50 sec
  Average Time Step           :     0.97 sec
  Maximum Time Step           :    30.00 sec
  Percent in Steady State     :     0.00
  Average Iterations per Step :     5.68
  Percent Not Converging      :    32.87
  
  
  ***************************
  Subcatchment Runoff Summary
  ***************************
  
  ------------------------------------------------------------------------------------------------------------------------------
                            Total      Total      Total      Total     Imperv       Perv      Total       Total     Peak  Runoff
                           Precip      Runon       Evap      Infil     Runoff     Runoff     Runoff      Runoff   Runoff   Coeff
  Subcatchment                 mm         mm         mm         mm         mm         mm         mm    10^6 ltr      LPS
  ------------------------------------------------------------------------------------------------------------------------------
  sub0                      74.56       0.00       0.00       0.73      67.20       4.20      71.39        0.06    44.99   0.958
  sub1                      74.56       0.00       0.00       5.61      38.20       3.89      49.29        0.33   205.81   0.661
  sub2                      74.56       0.00       0.00       5.89      32.71      13.95      51.16        0.48   248.97   0.686
  sub3                      74.56       0.00       0.00       5.17      34.21      13.65      51.05        1.15   559.63   0.685
  sub4                      74.56       0.00       0.00       2.93      41.58       4.20      48.94        1.02   557.35   0.656
  sub5                      74.56       0.00       0.00       6.22      40.44       2.53      51.43        0.58   360.03   0.690
  sub6                      74.56       0.00       0.00       5.21      41.48       2.60      51.03        1.32   788.79   0.684
  sub7                      74.56       0.00       0.00       2.27      48.72       3.99      55.02        0.19   133.48   0.738
  sub8                      74.56       0.00       0.00       1.45      47.87       3.92      52.91        0.34   240.51   0.710
  sub9                      74.56       0.00       0.00       1.80      48.09       3.94      53.65        0.26   180.84   0.720
  sub10                     74.56       0.00       0.00       4.27      43.95       3.17      52.55        0.58   377.36   0.705
  sub11                     74.56       0.00       0.00       3.38      45.04       3.25      52.41        0.61   422.37   0.703
  sub12                     74.56       0.00       0.00       6.46      39.06       4.81      52.08        0.46   314.79   0.699
  sub13                     74.56       0.00       0.00       4.24      45.11      17.77      64.14        0.76   463.22   0.860
  sub14                     74.56       0.00       0.00       3.22      44.66       3.66      52.09        0.50   338.11   0.699
  sub15                     74.56       0.00       0.00       6.06      36.20      12.14      53.91        0.93   555.26   0.723
  sub16                     74.56       0.00       0.00       5.77      37.23      14.55      56.35        0.59   388.71   0.756
  sub17                     74.56       0.00       0.00       7.78      33.83      12.67      54.53        0.47   294.47   0.731
  sub18                     74.56       0.00       0.00       2.71      46.16       3.78      52.95        0.42   307.86   0.710
  sub19                     74.56       0.00       0.00       7.69      35.30      12.60      55.81        0.18   110.62   0.749
  sub20                     74.56       0.00       0.00       3.56      43.92       3.59      51.80        0.36   254.49   0.695
  sub21                     74.56       0.00       0.00       3.73      46.23       5.19      55.55        0.28   203.83   0.745
  sub22                     74.56       0.00       0.00       5.28      37.57      20.99      60.27        3.81  2175.60   0.808
  sub23                     74.56       0.00       0.00       5.17      34.62      15.76      53.64        2.56  1575.05   0.719
  sub24                     74.56       0.00       0.00       4.45      43.68       5.84      54.53        1.96  1382.55   0.731
  sub25                     74.56       0.00       0.00       5.19      41.49       2.59      51.01        0.66   491.40   0.684
  sub26                     74.56       0.00       0.00       6.81      36.43       9.42      53.42        0.76   567.39   0.716
  sub27                     74.56       0.00       0.00       4.01      42.66       3.49      51.12        0.74   493.00   0.686
  sub28                     74.56       0.00       0.00       3.93      42.10       3.04      50.11        0.79   522.39   0.672
  sub29                     74.56       0.00       0.00       5.33      39.16       2.83      49.05        0.79   467.43   0.658
  sub30                     74.56       0.00       0.00       4.35      42.65       3.07      51.30        1.16   832.95   0.688
  sub31                     74.56       0.00       0.00       6.06      41.98       7.05      56.10        1.19   850.59   0.752
  sub32                     74.56       0.00       0.00       5.04      41.35       2.98      50.95        1.01   695.71   0.683
  sub33                     74.56       0.00       0.00       4.50      43.00       5.29      53.53        0.98   712.50   0.718
  sub34                     74.56       0.00       0.00       7.08      28.96      22.72      55.97        1.25   806.53   0.751
  sub35                     74.56       0.00       0.00       4.10      45.08       3.24      53.50        0.19   154.00   0.718
  sub36                     74.56       0.00       0.00       6.21      37.09       8.56      52.56        0.46   335.82   0.705
  sub37                     74.56       0.00       0.00       5.85      34.69      17.88      56.50        0.43   316.58   0.758
  sub38                     74.56       0.00       0.00       6.55      34.71      15.19      55.58        1.05   797.50   0.745
  sub39                     74.56       0.00       0.00       4.74      40.78       2.93      49.90        0.53   409.00   0.669
  sub40                     74.56       0.00       0.00       3.37      44.51       3.20      51.83        0.60   482.66   0.695
  sub41                     74.56       0.00       0.00       3.93      42.57       6.66      53.29        1.02   781.11   0.715
  sub42                     74.56       0.00       0.00       2.88      45.08       3.69      52.05        0.52   417.22   0.698
  sub43                     74.56       0.00       0.00       3.95      44.68      21.43      66.11        0.54   362.30   0.887
  sub44                     74.56       0.00       0.00       5.86      39.59       2.48      50.01        0.57   363.71   0.671
  sub45                     74.56       0.00       0.00       6.67      36.59       6.12      50.88        0.93   606.59   0.682
  sub46                     74.56       0.00       0.00       7.16      23.41      30.27      55.82        0.39   225.01   0.749
  sub47                     74.56       0.00       0.00       6.38      38.77       2.79      50.19        0.38   255.85   0.673
  sub48                     74.56       0.00       0.00       2.53      46.11       3.77      52.62        0.40   289.43   0.706
  sub49                     74.56       0.00       0.00       5.22      40.77       2.94      50.60        0.46   306.23   0.679
  sub50                     74.56       0.00       0.00       4.32      41.60       3.00      50.15        0.35   238.67   0.673
  sub51                     74.56       0.00       0.00       2.73      45.29       3.26      51.72        0.24   178.77   0.694
  sub52                     74.56       0.00       0.00       5.37      42.87       2.68      52.73        0.57   374.03   0.707
  sub53                     74.56       0.00       0.00       4.58      42.69       3.08      51.69        0.52   361.84   0.693
  sub54                     74.56       0.00       0.00       5.91      38.66       2.42      49.11        0.29   181.70   0.659
  sub55                     74.56       0.00       0.00       3.12      44.37       3.20      51.32        0.41   274.44   0.688
  sub56                     74.56       0.00       0.00       3.06      46.83       8.71      57.66        0.82   484.97   0.773
  sub57                     74.56       0.00       0.00       3.20      48.58      16.52      65.10        0.42   248.85   0.873
  sub58                     74.56       0.00       0.00       8.55      18.01      31.54      51.81        1.92   799.76   0.695
  sub59                     74.56       0.00       0.00       9.08      15.10      28.75      46.47        1.06   391.19   0.623
  sub60                     74.56       0.00       0.00       3.35      43.54       4.89      52.07        0.68   481.87   0.698
  sub61                     74.56       0.00       0.00       5.19      39.78       6.66      52.32        0.96   657.60   0.702
  sub62                     74.56       0.00       0.00       4.26      41.52       3.00      49.98        1.37   885.34   0.670
  sub67                     74.56       0.00       0.00       6.64      38.32       2.76      50.09        0.93   583.85   0.672
  sub68                     74.56       0.00       0.00       3.58      44.57       5.94      54.21        1.49  1004.48   0.727
  sub71                     74.56       0.00       0.00       3.05      42.50       3.07      49.23        1.29   801.76   0.660
  sub72                     74.56       0.00       0.00       4.64      42.46       2.67      51.23        0.70   397.10   0.687
  sub73                     74.56       0.00       0.00       2.05      53.73      11.67      65.40        0.06    50.66   0.877
  sub74                     74.56       0.00       0.00       2.99      44.37      16.82      61.19        0.10    75.05   0.821
  sub75                     74.56       0.00       0.00       3.09      44.36      15.41      60.31        0.13   103.90   0.809
  sub76                     74.56       0.00       0.00       3.65      46.75       8.41      58.34        0.14   108.06   0.783
  sub77                     74.56       0.00       0.00       2.95      48.09       8.09      58.44        0.09    72.58   0.784
  sub78                     74.56       0.00       0.00       7.48      36.43       4.48      50.71        0.14    93.65   0.680
  sub79                     74.56       0.00       0.00       5.48      43.77      11.18      60.05        0.15   107.72   0.805
  sub80                     74.56       0.00       0.00       3.98      42.55      16.83      60.81        0.18   131.20   0.816
  sub81                     74.56       0.00       0.00       4.64      40.75      18.95      61.46        0.19   129.92   0.824
  sub82                     74.56       0.00       0.00       4.69      39.54      18.51      60.04        0.18   128.56   0.805
  sub83                     74.56       0.00       0.00       5.01      37.76      18.52      58.76        0.20   143.05   0.788
  sub84                     74.56       0.00       0.00       4.53      38.10      16.27      56.68        0.31   210.62   0.760
  sub85                     74.56       0.00       0.00       7.12      35.13       8.99      52.22        0.23   154.91   0.700
  sub86                     74.56       0.00       0.00       3.80      44.95      12.72      59.91        0.29   206.45   0.804
  sub87                     74.56       0.00       0.00       3.63      46.95      20.09      67.03        0.20   143.68   0.899
  sub88                     74.56       0.00       0.00       3.48      47.08      19.35      66.43        0.20   147.45   0.891
  sub89                     74.56       0.00       0.00       3.02      47.02      17.06      64.08        0.17   131.66   0.859
  sub90                     74.56       0.00       0.00       2.62      49.40      14.79      64.19        0.16   121.27   0.861
  sub91                     74.56       0.00       0.00       2.65      50.10      15.09      65.19        0.12    95.07   0.874
  sub92                     74.56       0.00       0.00       3.22      50.22      18.37      68.59        0.10    85.21   0.920
  sub93                     74.56       0.00       0.00       3.22      50.24      18.40      68.64        0.12   103.97   0.921
  sub94                     74.56       0.00       0.00       3.22      50.11      18.25      68.36        0.15   117.16   0.917
  sub95                     74.56       0.00       0.00       3.01      51.60      17.15      68.75        0.10    83.88   0.922
  sub96                     74.56       0.00       0.00       2.28      56.85      13.16      70.01        0.13   112.85   0.939
  sub97                     74.56       0.00       0.00       6.82      27.53      34.86      63.41        0.15   120.53   0.851
  sub98                     74.56       0.00       0.00       7.63      20.16      40.13      60.67        0.20   119.91   0.814
  sub99                     74.56       0.00       0.00       8.20      15.28      41.73      57.02        0.20    95.15   0.765
  sub100                    74.56       0.00       0.00       8.20      15.25      39.39      54.64        0.19    81.59   0.733
  sub101                    74.56       0.00       0.00       8.20      15.24      39.14      54.39        0.18    77.53   0.729
  sub102                    74.56       0.00       0.00       7.89      17.36      35.94      53.30        0.16    66.78   0.715
  sub103                    74.56       0.00       0.00       8.10      15.91      35.86      51.78        0.25    97.74   0.694
  sub104                    74.56       0.00       0.00       8.10      15.90      35.37      51.28        0.27   105.72   0.688
  sub105                    74.56       0.00       0.00       8.41      13.76      36.67      50.43        0.29   108.09   0.676
  sub106                    74.56       0.00       0.00       8.20      15.22      37.73      52.95        0.27   109.65   0.710
  sub107                    74.56       0.00       0.00       8.61      13.58      39.84      53.92        0.38   158.86   0.723
  sub108                    74.56       0.00       0.00       8.67      12.95      43.13      56.47        0.53   247.90   0.757
  sub109                    74.56       0.00       0.00       7.53      23.43      31.70      57.44        0.82   471.64   0.770
  sub110                    74.56       0.00       0.00       5.55      40.07       7.19      53.54        1.12   790.65   0.718
  sub111                    74.56       0.00       0.00       5.75      38.28      10.89      54.76        0.47   329.60   0.735
  sub112                    74.56       0.00       0.00       4.46      42.21       9.15      55.53        0.44   319.26   0.745
  sub113                    74.56       0.00       0.00       2.30      45.25       6.06      53.13        0.37   279.13   0.713
  sub114                    74.56       0.00       0.00       2.28      45.61       5.61      53.12        0.35   267.88   0.713
  sub115                    74.56       0.00       0.00       3.37      44.43       4.99      53.08        0.39   288.84   0.712
  sub116                    74.56       0.00       0.00       6.52      35.85      18.71      59.07        0.11    70.11   0.792
  sub117                    74.56       0.00       0.00       6.92      33.56      18.42      57.21        0.26   171.75   0.767
  

  ***********************
  LID Performance Summary
  ***********************

  --------------------------------------------------------------------------------------------------------------------
                                         Total      Evap     Infil   Surface    Drain    Initial     Final  Continuity
                                        Inflow      Loss      Loss   Outflow   Outflow   Storage   Storage       Error
  Subcatchment      LID Control             mm        mm        mm        mm        mm        mm        mm           %
  --------------------------------------------------------------------------------------------------------------------
  sub1              GreenRoof            74.56      0.00      0.00      0.00      0.00      7.05     81.64       -0.04
  sub1              PermeablePavement     74.56      0.00     20.46      0.00     29.94      0.00     24.63       -0.65
  sub2              GreenRoof            74.56      0.00      0.00      0.00      0.00      7.05     81.64       -0.04
  sub2              PermeablePavement     74.56      0.00     20.46      0.00     29.94      0.00     24.63       -0.65
  sub3              GreenRoof            74.56      0.00      0.00      0.00      0.00      7.05     81.64       -0.04
  sub3              PermeablePavement     74.56      0.00     20.46      0.00     29.94      0.00     24.63       -0.65
  sub4              GreenRoof            74.56      0.00      0.00      0.00      0.00      7.05     81.64       -0.04
  sub4              PermeablePavement     74.56      0.00     20.46      0.00     29.94      0.00     24.63       -0.65
  sub5              GreenRoof            74.56      0.00      0.00      0.00      0.00      7.05     81.64       -0.04
  sub5              PermeablePavement     74.56      0.00     20.46      0.00     29.94      0.00     24.63       -0.65
  sub6              GreenRoof            74.56      0.00      0.00      0.00      0.00      7.05     81.64       -0.04
  sub6              PermeablePavement     74.56      0.00     20.46      0.00     29.94      0.00     24.63       -0.65
  sub7              GreenRoof            74.56      0.00      0.00      0.00      0.00      7.05     81.64       -0.04
  sub7              PermeablePavement     74.56      0.00     20.46      0.00     29.94      0.00     24.63       -0.65
  sub8              GreenRoof            74.56      0.00      0.00      0.00      0.00      7.05     81.64       -0.04
  sub8              PermeablePavement     74.56      0.00     20.46      0.00     29.94      0.00     24.63       -0.65
  sub9              GreenRoof            74.56      0.00      0.00      0.00      0.00      7.05     81.64       -0.04
  sub9              PermeablePavement     74.56      0.00     20.46      0.00     29.94      0.00     24.63       -0.65
  sub10             GreenRoof            74.56      0.00      0.00      0.00      0.00      7.05     81.64       -0.04
  sub10             PermeablePavement     74.56      0.00     20.46      0.00     29.94      0.00     24.63       -0.65
  sub11             GreenRoof            74.56      0.00      0.00      0.00      0.00      7.05     81.64       -0.04
  sub11             PermeablePavement     74.56      0.00     20.46      0.00     29.94      0.00     24.63       -0.65
  sub12             GreenRoof            74.56      0.00      0.00      0.00      0.00      7.05     81.64       -0.04
  sub12             PermeablePavement     74.56      0.00     20.46      0.00     29.94      0.00     24.63       -0.65
  sub13             PermeablePavement     74.56      0.00     20.46      0.00     29.94      0.00     24.63       -0.65
  sub14             GreenRoof            74.56      0.00      0.00      0.00      0.00      7.05     81.64       -0.04
  sub14             PermeablePavement     74.56      0.00     20.46      0.00     29.94      0.00     24.63       -0.65
  sub15             GreenRoof            74.56      0.00      0.00      0.00      0.00      7.05     81.64       -0.04
  sub15             PermeablePavement     74.56      0.00     20.46      0.00     29.94      0.00     24.63       -0.65
  sub16             GreenRoof            74.56      0.00      0.00      0.00      0.00      7.05     81.64       -0.04
  sub16             PermeablePavement     74.56      0.00     20.46      0.00     29.94      0.00     24.63       -0.65
  sub17             GreenRoof            74.56      0.00      0.00      0.00      0.00      7.05     81.64       -0.04
  sub17             PermeablePavement     74.56      0.00     20.46      0.00     29.94      0.00     24.63       -0.65
  sub18             GreenRoof            74.56      0.00      0.00      0.00      0.00      7.05     81.64       -0.04
  sub18             PermeablePavement     74.56      0.00     20.46      0.00     29.94      0.00     24.63       -0.65
  sub19             GreenRoof            74.56      0.00      0.00      0.00      0.00      7.05     81.64       -0.04
  sub19             PermeablePavement     74.56      0.00     20.46      0.00     29.94      0.00     24.63       -0.65
  sub20             GreenRoof            74.56      0.00      0.00      0.00      0.00      7.05     81.64       -0.04
  sub20             PermeablePavement     74.56      0.00     20.46      0.00     29.94      0.00     24.63       -0.65
  sub21             GreenRoof            74.56      0.00      0.00      0.00      0.00      7.05     81.64       -0.04
  sub21             PermeablePavement     74.56      0.00     20.46      0.00     29.94      0.00     24.63       -0.65
  sub22             GreenRoof            74.56      0.00      0.00      0.00      0.00      7.05     81.64       -0.04
  sub22             PermeablePavement     74.56      0.00     20.46      0.00     29.94      0.00     24.63       -0.65
  sub23             GreenRoof            74.56      0.00      0.00      0.00      0.00      7.05     81.64       -0.04
  sub23             PermeablePavement     74.56      0.00     20.46      0.00     29.94      0.00     24.63       -0.65
  sub24             GreenRoof            74.56      0.00      0.00      0.00      0.00      7.05     81.64       -0.04
  sub24             PermeablePavement     74.56      0.00     20.46      0.00     29.94      0.00     24.63       -0.65
  sub25             GreenRoof            74.56      0.00      0.00      0.00      0.00      7.05     81.64       -0.04
  sub25             PermeablePavement     74.56      0.00     20.46      0.00     29.94      0.00     24.63       -0.65
  sub26             GreenRoof            74.56      0.00      0.00      0.00      0.00      7.05     81.64       -0.04
  sub26             PermeablePavement     74.56      0.00     20.46      0.00     29.94      0.00     24.63       -0.65
  sub27             GreenRoof            74.56      0.00      0.00      0.00      0.00      7.05     81.64       -0.04
  sub27             PermeablePavement     74.56      0.00     20.46      0.00     29.94      0.00     24.63       -0.65
  sub28             GreenRoof            74.56      0.00      0.00      0.00      0.00      7.05     81.64       -0.04
  sub28             PermeablePavement     74.56      0.00     20.46      0.00     29.94      0.00     24.63       -0.65
  sub29             GreenRoof            74.56      0.00      0.00      0.00      0.00      7.05     81.64       -0.04
  sub29             PermeablePavement     74.56      0.00     20.46      0.00     29.94      0.00     24.63       -0.65
  sub30             GreenRoof            74.56      0.00      0.00      0.00      0.00      7.05     81.64       -0.04
  sub30             PermeablePavement     74.56      0.00     20.46      0.00     29.94      0.00     24.63       -0.65
  sub31             GreenRoof            74.56      0.00      0.00      0.00      0.00      7.05     81.64       -0.04
  sub31             PermeablePavement     74.56      0.00     20.46      0.00     29.94      0.00     24.63       -0.65
  sub32             GreenRoof            74.56      0.00      0.00      0.00      0.00      7.05     81.64       -0.04
  sub32             PermeablePavement     74.56      0.00     20.46      0.00     29.94      0.00     24.63       -0.65
  sub33             GreenRoof            74.56      0.00      0.00      0.00      0.00      7.05     81.64       -0.04
  sub33             PermeablePavement     74.56      0.00     20.46      0.00     29.94      0.00     24.63       -0.65
  sub34             GreenRoof            74.56      0.00      0.00      0.00      0.00      7.05     81.64       -0.04
  sub34             PermeablePavement     74.56      0.00     20.46      0.00     29.94      0.00     24.63       -0.65
  sub35             GreenRoof            74.56      0.00      0.00      0.00      0.00      7.05     81.64       -0.04
  sub35             PermeablePavement     74.56      0.00     20.46      0.00     29.94      0.00     24.63       -0.65
  sub36             GreenRoof            74.56      0.00      0.00      0.00      0.00      7.05     81.64       -0.04
  sub36             PermeablePavement     74.56      0.00     20.46      0.00     29.94      0.00     24.63       -0.65
  sub37             GreenRoof            74.56      0.00      0.00      0.00      0.00      7.05     81.64       -0.04
  sub37             PermeablePavement     74.56      0.00     20.46      0.00     29.94      0.00     24.63       -0.65
  sub38             GreenRoof            74.56      0.00      0.00      0.00      0.00      7.05     81.64       -0.04
  sub38             PermeablePavement     74.56      0.00     20.46      0.00     29.94      0.00     24.63       -0.65
  sub39             GreenRoof            74.56      0.00      0.00      0.00      0.00      7.05     81.64       -0.04
  sub39             PermeablePavement     74.56      0.00     20.46      0.00     29.94      0.00     24.63       -0.65
  sub40             GreenRoof            74.56      0.00      0.00      0.00      0.00      7.05     81.64       -0.04
  sub40             PermeablePavement     74.56      0.00     20.46      0.00     29.94      0.00     24.63       -0.65
  sub41             GreenRoof            74.56      0.00      0.00      0.00      0.00      7.05     81.64       -0.04
  sub41             PermeablePavement     74.56      0.00     20.46      0.00     29.94      0.00     24.63       -0.65
  sub42             GreenRoof            74.56      0.00      0.00      0.00      0.00      7.05     81.64       -0.04
  sub42             PermeablePavement     74.56      0.00     20.46      0.00     29.94      0.00     24.63       -0.65
  sub44             GreenRoof            74.56      0.00      0.00      0.00      0.00      7.05     81.64       -0.04
  sub44             PermeablePavement     74.56      0.00     20.46      0.00     29.94      0.00     24.63       -0.65
  sub45             GreenRoof            74.56      0.00      0.00      0.00      0.00      7.05     81.64       -0.04
  sub45             PermeablePavement     74.56      0.00     20.46      0.00     29.94      0.00     24.63       -0.65
  sub46             GreenRoof            74.56      0.00      0.00      0.00      0.00      7.05     81.64       -0.04
  sub46             PermeablePavement     74.56      0.00     20.46      0.00     29.94      0.00     24.63       -0.65
  sub47             GreenRoof            74.56      0.00      0.00      0.00      0.00      7.05     81.64       -0.04
  sub47             PermeablePavement     74.56      0.00     20.46      0.00     29.94      0.00     24.63       -0.65
  sub48             GreenRoof            74.56      0.00      0.00      0.00      0.00      7.05     81.64       -0.04
  sub48             PermeablePavement     74.56      0.00     20.46      0.00     29.94      0.00     24.63       -0.65
  sub49             GreenRoof            74.56      0.00      0.00      0.00      0.00      7.05     81.64       -0.04
  sub49             PermeablePavement     74.56      0.00     20.46      0.00     29.94      0.00     24.63       -0.65
  sub50             GreenRoof            74.56      0.00      0.00      0.00      0.00      7.05     81.64       -0.04
  sub50             PermeablePavement     74.56      0.00     20.46      0.00     29.94      0.00     24.63       -0.65
  sub51             GreenRoof            74.56      0.00      0.00      0.00      0.00      7.05     81.64       -0.04
  sub51             PermeablePavement     74.56      0.00     20.46      0.00     29.94      0.00     24.63       -0.65
  sub52             GreenRoof            74.56      0.00      0.00      0.00      0.00      7.05     81.64       -0.04
  sub52             PermeablePavement     74.56      0.00     20.46      0.00     29.94      0.00     24.63       -0.65
  sub53             GreenRoof            74.56      0.00      0.00      0.00      0.00      7.05     81.64       -0.04
  sub53             PermeablePavement     74.56      0.00     20.46      0.00     29.94      0.00     24.63       -0.65
  sub54             GreenRoof            74.56      0.00      0.00      0.00      0.00      7.05     81.64       -0.04
  sub54             PermeablePavement     74.56      0.00     20.46      0.00     29.94      0.00     24.63       -0.65
  sub55             GreenRoof            74.56      0.00      0.00      0.00      0.00      7.05     81.64       -0.04
  sub55             PermeablePavement     74.56      0.00     20.46      0.00     29.94      0.00     24.63       -0.65
  sub56             GreenRoof            74.56      0.00      0.00      0.00      0.00      7.05     81.64       -0.04
  sub56             PermeablePavement     74.56      0.00     20.46      0.00     29.94      0.00     24.63       -0.65
  sub57             GreenRoof            74.56      0.00      0.00      0.00      0.00      7.05     81.64       -0.04
  sub58             PermeablePavement     74.56      0.00     20.46      0.00     29.94      0.00     24.63       -0.65
  sub59             PermeablePavement     74.56      0.00     20.46      0.00     29.94      0.00     24.63       -0.65
  sub60             GreenRoof            74.56      0.00      0.00      0.00      0.00      7.05     81.64       -0.04
  sub60             PermeablePavement     74.56      0.00     20.46      0.00     29.94      0.00     24.63       -0.65
  sub61             GreenRoof            74.56      0.00      0.00      0.00      0.00      7.05     81.64       -0.04
  sub61             PermeablePavement     74.56      0.00     20.46      0.00     29.94      0.00     24.63       -0.65
  sub62             GreenRoof            74.56      0.00      0.00      0.00      0.00      7.05     81.64       -0.04
  sub62             PermeablePavement     74.56      0.00     20.46      0.00     29.94      0.00     24.63       -0.65
  sub67             GreenRoof            74.56      0.00      0.00      0.00      0.00      7.05     81.64       -0.04
  sub67             PermeablePavement     74.56      0.00     20.46      0.00     29.94      0.00     24.63       -0.65
  sub68             GreenRoof            74.56      0.00      0.00      0.00      0.00      7.05     81.64       -0.04
  sub68             PermeablePavement     74.56      0.00     20.46      0.00     29.94      0.00     24.63       -0.65
  sub71             GreenRoof            74.56      0.00      0.00      0.00      0.00      7.05     81.64       -0.04
  sub71             PermeablePavement     74.56      0.00     20.46      0.00     29.94      0.00     24.63       -0.65
  sub72             GreenRoof            74.56      0.00      0.00      0.00      0.00      7.05     81.64       -0.04
  sub72             PermeablePavement     74.56      0.00     20.46      0.00     29.94      0.00     24.63       -0.65
  sub73             GreenRoof            74.56      0.00      0.00      0.00      0.00      7.05     81.64       -0.04
  sub74             GreenRoof            74.56      0.00      0.00      0.00      0.00      7.05     81.64       -0.04
  sub75             GreenRoof            74.56      0.00      0.00      0.00      0.00      7.05     81.64       -0.04
  sub75             PermeablePavement     74.56      0.00     20.46      0.00     29.94      0.00     24.63       -0.65
  sub76             GreenRoof            74.56      0.00      0.00      0.00      0.00      7.05     81.64       -0.04
  sub76             PermeablePavement     74.56      0.00     20.46      0.00     29.94      0.00     24.63       -0.65
  sub77             GreenRoof            74.56      0.00      0.00      0.00      0.00      7.05     81.64       -0.04
  sub77             PermeablePavement     74.56      0.00     20.46      0.00     29.94      0.00     24.63       -0.65
  sub78             GreenRoof            74.56      0.00      0.00      0.00      0.00      7.05     81.64       -0.04
  sub78             PermeablePavement     74.56      0.00     20.46      0.00     29.94      0.00     24.63       -0.65
  sub79             GreenRoof            74.56      0.00      0.00      0.00      0.00      7.05     81.64       -0.04
  sub79             PermeablePavement     74.56      0.00     20.46      0.00     29.94      0.00     24.63       -0.65
  sub80             GreenRoof            74.56      0.00      0.00      0.00      0.00      7.05     81.64       -0.04
  sub80             PermeablePavement     74.56      0.00     20.46      0.00     29.94      0.00     24.63       -0.65
  sub81             GreenRoof            74.56      0.00      0.00      0.00      0.00      7.05     81.64       -0.04
  sub81             PermeablePavement     74.56      0.00     20.46      0.00     29.94      0.00     24.63       -0.65
  sub82             GreenRoof            74.56      0.00      0.00      0.00      0.00      7.05     81.64       -0.04
  sub82             PermeablePavement     74.56      0.00     20.46      0.00     29.94      0.00     24.63       -0.65
  sub83             GreenRoof            74.56      0.00      0.00      0.00      0.00      7.05     81.64       -0.04
  sub83             PermeablePavement     74.56      0.00     20.46      0.00     29.94      0.00     24.63       -0.65
  sub84             GreenRoof            74.56      0.00      0.00      0.00      0.00      7.05     81.64       -0.04
  sub84             PermeablePavement     74.56      0.00     20.46      0.00     29.94      0.00     24.63       -0.65
  sub85             GreenRoof            74.56      0.00      0.00      0.00      0.00      7.05     81.64       -0.04
  sub85             PermeablePavement     74.56      0.00     20.46      0.00     29.94      0.00     24.63       -0.65
  sub86             GreenRoof            74.56      0.00      0.00      0.00      0.00      7.05     81.64       -0.04
  sub86             PermeablePavement     74.56      0.00     20.46      0.00     29.94      0.00     24.63       -0.65
  sub88             GreenRoof            74.56      0.00      0.00      0.00      0.00      7.05     81.64       -0.04
  sub89             GreenRoof            74.56      0.00      0.00      0.00      0.00      7.05     81.64       -0.04
  sub90             GreenRoof            74.56      0.00      0.00      0.00      0.00      7.05     81.64       -0.04
  sub91             GreenRoof            74.56      0.00      0.00      0.00      0.00      7.05     81.64       -0.04
  sub97             PermeablePavement     74.56      0.00     20.46      0.00     29.94      0.00     24.63       -0.65
  sub98             PermeablePavement     74.56      0.00     20.46      0.00     29.94      0.00     24.63       -0.65
  sub107            PermeablePavement     74.56      0.00     20.46      0.00     29.94      0.00     24.63       -0.65
  sub108            PermeablePavement     74.56      0.00     20.46      0.00     29.94      0.00     24.63       -0.65
  sub109            GreenRoof            74.56      0.00      0.00      0.00      0.00      7.05     81.64       -0.04
  sub109            PermeablePavement     74.56      0.00     20.46      0.00     29.94      0.00     24.63       -0.65
  sub110            GreenRoof            74.56      0.00      0.00      0.00      0.00      7.05     81.64       -0.04
  sub110            PermeablePavement     74.56      0.00     20.46      0.00     29.94      0.00     24.63       -0.65
  sub111            GreenRoof            74.56      0.00      0.00      0.00      0.00      7.05     81.64       -0.04
  sub111            PermeablePavement     74.56      0.00     20.46      0.00     29.94      0.00     24.63       -0.65
  sub112            GreenRoof            74.56      0.00      0.00      0.00      0.00      7.05     81.64       -0.04
  sub112            PermeablePavement     74.56      0.00     20.46      0.00     29.94      0.00     24.63       -0.65
  sub113            GreenRoof            74.56      0.00      0.00      0.00      0.00      7.05     81.64       -0.04
  sub113            PermeablePavement     74.56      0.00     20.46      0.00     29.94      0.00     24.63       -0.65
  sub114            GreenRoof            74.56      0.00      0.00      0.00      0.00      7.05     81.64       -0.04
  sub114            PermeablePavement     74.56      0.00     20.46      0.00     29.94      0.00     24.63       -0.65
  sub115            GreenRoof            74.56      0.00      0.00      0.00      0.00      7.05     81.64       -0.04
  sub115            PermeablePavement     74.56      0.00     20.46      0.00     29.94      0.00     24.63       -0.65
  sub116            GreenRoof            74.56      0.00      0.00      0.00      0.00      7.05     81.64       -0.04
  sub116            PermeablePavement     74.56      0.00     20.46      0.00     29.94      0.00     24.63       -0.65
  sub117            GreenRoof            74.56      0.00      0.00      0.00      0.00      7.05     81.64       -0.04
  sub117            PermeablePavement     74.56      0.00     20.46      0.00     29.94      0.00     24.63       -0.65
  
  ******************
  Node Depth Summary
  ******************
  
  ---------------------------------------------------------------------------------
                                 Average  Maximum  Maximum  Time of Max    Reported
                                   Depth    Depth      HGL   Occurrence   Max Depth
  Node                 Type       Meters   Meters   Meters  days hr:min      Meters
  ---------------------------------------------------------------------------------
  WS02001211           JUNCTION     0.92     2.68     7.52     0  00:50        2.55
  WS02001212           JUNCTION     0.68     2.25     7.31     0  00:51        2.22
  WS02001213           JUNCTION     0.92     2.58     7.34     0  00:50        2.46
  WS02003069           JUNCTION     0.87     1.75     6.33     0  00:50        1.68
  WS02003072           JUNCTION     0.95     1.58     5.96     0  00:54        1.58
  WS02003073           JUNCTION     1.18     1.70     5.77     0  00:54        1.70
  WS02003076           JUNCTION     0.93     1.36     5.58     0  00:54        1.35
  WS02003060           JUNCTION     0.75     1.98     6.91     0  00:50        1.67
  WS02003066           JUNCTION     0.44     1.18     6.73     0  00:54        1.17
  WS02003059           JUNCTION     0.98     2.17     6.85     0  00:51        2.13
  WS02003115           JUNCTION     1.83     2.76     9.62     0  00:40        2.75
  WS02003116           JUNCTION     1.97     3.03     9.74     0  00:30        2.93
  WS02003118           JUNCTION     1.96     2.90     9.52     0  00:30        2.90
  WS02003215           JUNCTION     1.85     2.80     9.66     0  00:40        2.80
  WS02003110           JUNCTION     1.50     2.32     9.57     0  00:40        2.26
  WS02003111           JUNCTION     1.62     2.35     9.44     0  00:40        2.35
  WS02005155           JUNCTION     1.47     2.35     9.66     0  00:40        2.26
  WS02005154           JUNCTION     1.24     2.08     9.72     0  00:40        2.03
  WS02005193           JUNCTION     1.26     3.22    11.04     0  00:49        2.81
  WS02005196           JUNCTION     1.23     3.31    11.16     0  00:49        2.78
  WS02003067           JUNCTION     0.77     1.49     6.81     0  00:53        1.47
  WS02004401           JUNCTION     1.35     2.50     8.50     0  00:52        2.45
  WS02004402           JUNCTION     1.34     2.50     8.46     0  00:52        2.47
  WS02004403           JUNCTION     1.33     2.50     8.43     0  00:53        2.47
  WS02004404           JUNCTION     1.37     2.56     8.41     0  00:53        2.52
  WS02004406           JUNCTION     1.31     2.51     8.34     0  00:53        2.49
  WS02004409           JUNCTION     1.07     2.31     8.08     0  00:53        2.30
  WS02004410           JUNCTION     0.99     2.10     7.82     0  00:53        2.09
  WS02004411           JUNCTION     0.92     1.89     7.57     0  00:53        1.87
  WS02004412           JUNCTION     0.85     1.65     7.29     0  00:53        1.63
  WS02004413           JUNCTION     0.91     1.56     7.03     0  00:53        1.54
  WS02004405           JUNCTION     1.35     2.54     8.39     0  00:53        2.51
  WS02006109           JUNCTION     1.82     2.64     9.26     0  00:47        2.64
  WS02006110           JUNCTION     1.63     2.48     9.07     0  00:53        2.48
  WS02006111           JUNCTION     1.04     2.00     8.70     0  00:56        1.99
  WS02006112           JUNCTION     1.64     2.68     8.56     0  00:00        2.68
  WS02006113           JUNCTION     1.12     2.00     8.89     0  00:52        1.99
  WS02006115           JUNCTION     1.32     2.40     8.54     0  00:52        2.38
  WS02006116           JUNCTION     1.36     2.48     8.52     0  00:52        2.46
  WS02006230           JUNCTION     1.90     2.65     9.39     0  00:44        2.65
  WS02006231           JUNCTION     1.51     2.19     9.31     0  01:06        2.19
  WS02006232           JUNCTION     1.56     2.18     9.22     0  00:43        2.18
  WS02006234           JUNCTION     1.41     1.96     9.12     0  00:42        1.96
  WS02006235           JUNCTION     1.39     1.93     9.10     0  01:09        1.93
  WS02006238           JUNCTION     1.41     1.94     9.08     0  01:23        1.93
  WS02006240           JUNCTION     1.21     1.63     8.92     0  01:12        1.62
  WS02006242           JUNCTION     1.20     1.55     8.82     0  00:37        1.55
  WS02006243           JUNCTION     1.05     1.37     8.79     0  00:37        1.36
  WS02006245           JUNCTION     0.98     1.27     8.75     0  01:23        1.27
  WS02006247           JUNCTION     0.97     1.23     8.73     0  00:56        1.23
  WS02006248           JUNCTION     0.88     1.10     8.69     0  00:35        1.10
  WS02006249           JUNCTION     0.88     1.09     8.69     0  00:34        1.09
  WS02006239           JUNCTION     1.31     1.79     9.00     0  01:02        1.78
  WS02006251           JUNCTION     1.24     2.21     9.88     0  00:49        2.12
  WS02006252           JUNCTION     0.86     1.50     9.74     0  00:49        1.50
  WS02006253           JUNCTION     1.43     3.28    10.92     0  00:49        2.99
  WS02006256           JUNCTION     1.80     2.35     9.28     0  00:18        2.35
  WS02004138           JUNCTION     0.12     0.14     7.39     0  00:50        0.14
  WS02004139           JUNCTION     0.85     2.74     7.65     0  00:50        2.51
  WS02004407           JUNCTION     0.71     2.01     8.32     0  00:52        1.96
  WS02006228           JUNCTION     2.01     3.03     9.68     0  00:49        3.03
  WS02006229           JUNCTION     2.10     3.23     9.92     0  00:51        3.22
  WS02006280           JUNCTION     0.84     1.75    10.02     0  00:50        1.74
  WS02006284           JUNCTION     1.02     1.95    10.35     0  00:51        1.94
  WS02006287           JUNCTION     0.77     1.75    10.70     0  00:51        1.73
  WS02003091           JUNCTION     2.64     4.43    10.23     0  00:00        3.91
  WS02003203           JUNCTION     2.59     3.83     9.82     0  00:37        3.83
  WS6145               JUNCTION     0.26     2.33    10.43     0  00:54        2.32
  WS6147               JUNCTION     0.20     2.20    10.48     0  00:52        2.17
  WS6150               JUNCTION     0.20     2.19    10.52     0  00:52        2.15
  WS6152               JUNCTION     0.21     2.18    10.52     0  00:52        2.15
  WS6155               JUNCTION     0.18     2.10    10.50     0  00:52        2.10
  WS6156               JUNCTION     0.17     2.05    10.52     0  00:52        2.05
  WS6136               JUNCTION     0.24     1.90    10.85     0  00:50        1.90
  WS6140               JUNCTION     0.29     2.46    10.40     0  00:54        2.45
  WS6142               JUNCTION     0.26     2.34    10.42     0  00:54        2.33
  WS6325               JUNCTION     0.49     2.74    10.39     0  00:54        2.72
  WS6327               JUNCTION     0.35     2.58    10.39     0  00:54        2.56
  WS6329               JUNCTION     0.32     2.51    10.40     0  00:54        2.50
  WS6332               JUNCTION     0.26     2.53    10.56     0  00:51        2.35
  WS6158               JUNCTION     0.15     2.05    10.59     0  00:52        2.05
  WS6335               JUNCTION     0.26     2.60    10.67     0  00:51        2.38
  WS6338               JUNCTION     0.21     2.55    10.75     0  00:51        2.45
  WS6340               JUNCTION     0.18     2.50    10.84     0  00:51        2.50
  WS6342               JUNCTION     0.13     2.50    11.10     0  00:51        2.23
  WS6135               JUNCTION     0.65     2.89    10.38     0  00:54        2.87
  WS6396               JUNCTION     0.40     2.01     9.57     0  00:54        2.00
  WS6399               JUNCTION     0.24     1.37     8.80     0  00:53        1.36
  WS02003082           JUNCTION     1.28     1.93     7.00     0  00:53        1.92
  WS02003077           JUNCTION     0.43     0.84     5.85     0  00:53        0.84
  WS02003080           JUNCTION     0.84     1.30     6.24     0  00:53        1.29
  WS02003083           JUNCTION     1.65     2.41     7.44     0  00:38        2.40
  WS02003084           JUNCTION     1.77     2.61     7.71     0  00:38        2.59
  WS02003085           JUNCTION     1.85     2.72     7.89     0  00:52        2.71
  WS02003086           JUNCTION     2.07     3.02     8.22     0  00:53        3.01
  WS02003087           JUNCTION     2.33     3.36     8.57     0  00:53        3.35
  WS02003088           JUNCTION     2.50     4.14     9.43     0  00:00        4.07
  WS02003089           JUNCTION     2.61     4.34     9.80     0  00:00        4.02
  WS02003090           JUNCTION     2.81     4.43     9.86     0  00:00        4.04
  WS02003081           JUNCTION     1.05     1.61     6.65     0  00:54        1.60
  WS02003122           JUNCTION     2.14     3.11     9.48     0  00:52        3.10
  WS02003187           JUNCTION     2.16     3.11     9.44     0  00:48        3.11
  WS02003188           JUNCTION     2.16     2.97     9.23     0  00:48        2.96
  WS02003190           JUNCTION     2.16     2.84     9.04     0  00:38        2.84
  WS02003193           JUNCTION     2.14     2.85     9.09     0  00:38        2.85
  WS02003195           JUNCTION     2.16     2.93     9.18     0  00:38        2.93
  WS02003196           JUNCTION     2.26     3.12     9.30     0  00:50        3.11
  WS02003198           JUNCTION     2.28     3.20     9.38     0  00:50        3.19
  WS02003200           JUNCTION     2.04     3.00     9.44     0  00:38        2.98
  WS02003201           JUNCTION     2.30     3.22     9.36     0  00:37        3.22
  WS02003202           JUNCTION     2.43     4.17    10.23     0  00:00        3.48
  WS02004041           JUNCTION     0.61     0.98     5.34     0  00:54        0.98
  WSA6400              JUNCTION     0.99     2.46     8.30     0  00:53        2.41
  WS6400               JUNCTION     0.37     1.73     8.39     0  00:53        1.68
  WSF208               JUNCTION     0.71     1.97     8.06     0  00:53        1.94
  WSF207               JUNCTION     0.61     1.70     7.84     0  00:53        1.68
  WSF206               JUNCTION     0.70     1.75     7.68     0  00:53        1.73
  WSF205               JUNCTION     0.64     1.62     7.52     0  00:53        1.61
  WSF204               JUNCTION     1.17     2.17     7.32     0  00:54        2.16
  WSF203               JUNCTION     0.57     1.37     7.08     0  00:54        1.36
  WSF202               JUNCTION     0.51     1.21     6.93     0  00:54        1.19
  WSF201               JUNCTION     0.43     1.05     6.78     0  00:54        1.05
  WSF200               JUNCTION     0.55     1.46     6.70     0  00:54        1.46
  HS02004901           JUNCTION     0.64     1.42    11.24     0  00:47        1.42
  HS02004881           JUNCTION     0.42     2.15    11.18     0  00:49        1.70
  HS02004876           JUNCTION     0.53     2.13    11.16     0  00:49        1.93
  HS02004870           JUNCTION     0.44     2.10    11.39     0  00:49        1.89
  HS02004862           JUNCTION     0.45     2.00    11.38     0  00:49        2.00
  HS02004856           JUNCTION     0.48     2.07    11.50     0  00:49        2.07
  HS02004852           JUNCTION     0.42     2.08    11.59     0  00:49        2.01
  HS02004848           JUNCTION     0.40     2.04    11.64     0  00:49        1.93
  HS02004842           JUNCTION     0.71     2.22    11.49     0  00:49        2.22
  HS02004837           JUNCTION     0.43     2.04    11.62     0  00:47        1.85
  HS02004830           JUNCTION     0.50     2.03    11.50     0  00:47        1.87
  HS02004824           JUNCTION     0.54     2.01    11.41     0  00:49        1.90
  HS02004817           JUNCTION     1.03     2.42    11.26     0  00:49        2.35
  HS02004807           JUNCTION     0.72     1.92    11.09     0  00:49        1.92
  HS02004802           JUNCTION     0.74     1.81    10.94     0  00:51        1.80
  HS02004799           JUNCTION     0.85     1.76    10.97     0  00:47        1.76
  HS02004792           JUNCTION     0.65     1.60    11.12     0  00:47        1.60
  HS02004788           JUNCTION     0.48     1.42    11.32     0  00:47        1.38
  HS02004785           JUNCTION     0.52     1.49    11.39     0  00:47        1.37
  HS02004777           JUNCTION     0.65     1.48    11.28     0  00:47        1.46
  HS02004770           JUNCTION     0.63     1.42    11.25     0  00:47        1.42
  HS02004480           JUNCTION     0.75     1.67    10.91     0  00:49        1.66
  HS02004479           JUNCTION     0.79     1.69    10.90     0  00:49        1.68
  HS02004478           JUNCTION     0.64     1.59    10.82     0  00:51        1.59
  HS02004053           JUNCTION     0.22     1.90    10.67     0  00:52        1.10
  HS02004052           JUNCTION     0.27     1.39    11.04     0  00:53        1.39
  HS02004049           JUNCTION     0.16     1.03    11.71     0  00:52        0.85
  HS02004048           JUNCTION     0.38     1.70    12.60     0  00:50        1.70
  HS02004046           JUNCTION     0.37     1.80    13.52     0  00:50        1.42
  HS02004043           JUNCTION     0.16     2.06    14.75     0  00:50        1.08
  HS02004041           JUNCTION     0.12     0.30    15.74     0  00:52        0.30
  HS02004038           JUNCTION     0.11     0.29    18.98     0  00:52        0.29
  HS02004036           JUNCTION     0.00     0.00    22.46     0  00:00        0.00
  HS02004034           JUNCTION     0.00     0.00    26.83     0  00:00        0.00
  HS02004028           JUNCTION     0.17     0.51    37.36     0  00:50        0.51
  HS02004027           JUNCTION     0.14     0.34    36.47     0  00:50        0.34
  HS02004026           JUNCTION     0.14     0.35    35.75     0  00:50        0.34
  HS02004024           JUNCTION     0.14     0.42    34.63     0  00:50        0.41
  HS02004022           JUNCTION     0.19     0.80    33.84     0  00:49        0.80
  HS02004021           JUNCTION     0.23     0.81    32.54     0  00:48        0.81
  HS02004019           JUNCTION     0.29     0.80    31.76     0  00:47        0.80
  HS02004018           JUNCTION     0.19     0.60    33.81     0  00:49        0.60
  HS02004017           JUNCTION     0.18     0.53    34.37     0  00:50        0.53
  HS02004013           JUNCTION     0.11     0.36    35.50     0  00:52        0.36
  HS02004010           JUNCTION     0.04     0.13    38.00     0  00:51        0.13
  HS02003174           JUNCTION     0.15     0.40     5.93     0  00:52        0.39
  HS02003171           JUNCTION     0.16     0.44     6.13     0  00:51        0.44
  HS02003170           JUNCTION     0.21     0.43     6.88     0  00:51        0.42
  HS02003168           JUNCTION     0.10     0.27     6.77     0  00:51        0.27
  HS02003166           JUNCTION     0.20     0.43     6.91     0  00:51        0.43
  HS02003162           JUNCTION     0.20     0.42    30.68     0  00:47        0.42
  HS02003160           JUNCTION     0.14     0.33    28.39     0  00:51        0.33
  HS02003150           JUNCTION     0.15     0.35    26.37     0  00:51        0.35
  HS02003148           JUNCTION     0.17     0.43    22.17     0  00:51        0.43
  HS02003145           JUNCTION     0.20     0.58    14.45     0  00:51        0.58
  HS02003143           JUNCTION     0.32     0.80    13.27     0  00:45        0.80
  HS02003138           JUNCTION     0.12     0.28     6.77     0  01:34        0.28
  HS02003136           JUNCTION     1.29     2.28    10.00     0  00:00        2.28
  HS02003125           JUNCTION     1.40     2.38     9.83     0  00:40        2.28
  HS02003122           JUNCTION     1.44     2.50     9.93     0  00:40        2.33
  HS02003119           JUNCTION     1.22     2.57    10.29     0  00:40        2.08
  HS02003116           JUNCTION     0.92     2.43    10.55     0  00:40        1.69
  HS02003111           JUNCTION     0.43     0.80     9.81     0  00:51        0.80
  HS02003108           JUNCTION     0.33     1.01    10.12     0  00:49        0.74
  HS02003100           JUNCTION     0.23     0.67     9.90     0  00:51        0.65
  HS02003088           JUNCTION     0.18     0.62     9.91     0  00:51        0.61
  HS02003084           JUNCTION     0.06     0.49     9.92     0  00:51        0.48
  HS02003079           JUNCTION     0.04     0.41     9.92     0  00:51        0.41
  HS02003077           JUNCTION     0.01     0.19     9.92     0  00:52        0.19
  HS02003065           JUNCTION     0.56     1.60    10.84     0  00:43        1.53
  HS02003056           JUNCTION     0.57     1.74    10.68     0  00:50        1.62
  HS02003053           JUNCTION     0.37     1.66    10.96     0  00:44        1.43
  HS02003042           JUNCTION     0.24     1.69    11.35     0  00:45        1.22
  HS02003039           JUNCTION     0.27     1.71    11.36     0  00:50        1.31
  HS02003036           JUNCTION     0.12     1.41    11.47     0  00:50        1.03
  HS02003028           JUNCTION     0.21     1.40    11.14     0  00:50        1.40
  HS02003021           JUNCTION     0.23     1.55    10.92     0  00:50        1.48
  HS02003018           JUNCTION     0.24     1.48    10.69     0  00:50        1.48
  HS02003017           JUNCTION     0.24     1.48    10.64     0  00:50        1.47
  HS02003013           JUNCTION     0.24     1.47    10.52     0  00:50        1.39
  HS02003010           JUNCTION     0.27     1.41    10.21     0  00:50        1.28
  HS02003007           JUNCTION     0.24     1.25     9.87     0  00:50        1.08
  HS02003004           JUNCTION     0.34     1.04     9.36     0  00:50        0.97
  HS02003001           JUNCTION     0.09     0.27     8.56     0  00:51        0.26
  YS02001738           JUNCTION     0.00     0.00     8.89     0  00:00        0.00
  YS02001739           JUNCTION     0.00     0.00     8.37     0  00:00        0.00
  YS02001742           JUNCTION     0.00     0.00     8.49     0  00:00        0.00
  YS02001745           JUNCTION     0.12     0.29     7.81     0  00:52        0.29
  YS02001748           JUNCTION     0.14     0.34     7.41     0  00:52        0.34
  YS02001751           JUNCTION     0.13     0.33     7.21     0  00:51        0.33
  YS02001754           JUNCTION     0.12     0.32     6.93     0  00:53        0.32
  YS02001762           JUNCTION     0.29     0.78     7.18     0  00:53        0.78
  YS02001765           JUNCTION     0.28     0.76     7.21     0  00:53        0.76
  YS02001767           JUNCTION     0.29     0.78     7.27     0  00:53        0.78
  YS02001770           JUNCTION     0.35     0.85     7.35     0  00:53        0.85
  YS02001774           JUNCTION     0.42     0.93     7.35     0  00:53        0.93
  YS02001779           JUNCTION     0.17     0.67     7.35     0  00:53        0.67
  YS02001882           JUNCTION     0.63     1.70     8.42     0  00:49        1.63
  YS02001884           JUNCTION     0.72     1.75     8.36     0  00:49        1.73
  YS02001759           JUNCTION     0.30     0.77     7.13     0  00:53        0.77
  YS02001887           JUNCTION     0.80     1.83     8.37     0  00:49        1.80
  YS02001890           JUNCTION     0.83     1.81     8.32     0  00:49        1.81
  YS02001898           JUNCTION     0.60     1.77     8.51     0  00:49        1.56
  YS02001901           JUNCTION     0.70     1.84     8.45     0  00:49        1.68
  YS02001904           JUNCTION     0.69     1.80     8.43     0  00:49        1.64
  YS02001907           JUNCTION     1.00     1.96     8.25     0  00:50        1.96
  YS02001910           JUNCTION     0.81     2.03     8.54     0  00:51        1.90
  YS02001915           JUNCTION     0.64     2.00     8.72     0  00:49        1.82
  YS02001918           JUNCTION     0.39     1.81     8.88     0  00:51        1.57
  YS02001920           JUNCTION     0.48     2.10     9.11     0  00:51        1.68
  YS02001923           JUNCTION     0.31     2.03     9.29     0  00:51        1.47
  YS02001926           JUNCTION     0.34     1.90     9.35     0  00:50        1.32
  YS02001929           JUNCTION     0.21     1.78     9.47     0  00:51        1.11
  YS02001932           JUNCTION     0.12     1.52     9.32     0  00:52        1.01
  YS02001935           JUNCTION     0.08     1.75     9.68     0  00:51        1.05
  YS02001757           JUNCTION     0.27     0.73     7.00     0  00:53        0.73
  YS02001895           JUNCTION     0.60     1.75     8.50     0  00:49        1.56
  YS02005679           JUNCTION     0.00     0.00    10.24     0  00:00        0.00
  YS02005559           JUNCTION     0.09     0.18    10.12     0  00:53        0.18
  YS02005651           JUNCTION     0.06     0.15    10.92     0  00:52        0.15
  YS02005670           JUNCTION     0.06     0.17    10.62     0  00:51        0.17
  YS02005547           JUNCTION     0.05     0.13    10.67     0  00:51        0.13
  YS02005549           JUNCTION     0.07     0.20    11.11     0  00:51        0.20
  YS02005550           JUNCTION     0.09     0.22    10.85     0  00:52        0.22
  YS02005551           JUNCTION     0.05     0.13    10.50     0  00:52        0.13
  YS02005553           JUNCTION     0.11     0.25    10.61     0  00:53        0.25
  YS02005554           JUNCTION     0.06     0.12    10.36     0  00:53        0.12
  YS02005556           JUNCTION     0.11     0.24    10.29     0  00:53        0.24
  YS02005557           JUNCTION     0.06     0.12    10.09     0  00:53        0.12
  YS02005560           JUNCTION     0.07     0.13     9.88     0  00:53        0.13
  YS02005562           JUNCTION     0.10     0.21     9.95     0  00:53        0.21
  YS02005563           JUNCTION     0.06     0.12     9.78     0  00:53        0.12
  YS02005565           JUNCTION     0.09     0.18     9.89     0  00:53        0.18
  YS02005566           JUNCTION     0.08     0.15     9.54     0  00:53        0.15
  YS02005568           JUNCTION     0.11     0.23     9.73     0  00:53        0.23
  YS02005569           JUNCTION     0.09     0.17     9.50     0  00:53        0.17
  YS02005598           JUNCTION     0.16     1.07    10.91     0  00:49        1.07
  YS02005600           JUNCTION     0.14     1.02    10.68     0  00:50        1.02
  YS02005602           JUNCTION     0.32     2.15    10.43     0  00:50        2.15
  YS02005603           JUNCTION     0.11     1.48     9.61     0  00:50        0.58
  YS02005609           JUNCTION     0.07     0.18     9.07     0  00:52        0.18
  YS02005653           JUNCTION     0.09     0.47    11.44     0  00:51        0.38
  YS02005654           JUNCTION     0.11     0.44    11.20     0  00:51        0.35
  YS02005655           JUNCTION     0.05     0.12    10.76     0  00:52        0.12
  YS02005595           JUNCTION     0.24     1.36    11.04     0  00:48        1.36
  YS02005658           JUNCTION     0.09     0.24    11.15     0  00:52        0.24
  YS02005659           JUNCTION     0.05     0.13    10.78     0  00:52        0.13
  YS02005661           JUNCTION     0.11     0.44    11.15     0  00:51        0.36
  YS02005662           JUNCTION     0.05     0.12    10.74     0  00:52        0.12
  YS02005664           JUNCTION     0.11     0.34    10.92     0  00:52        0.31
  YS02005665           JUNCTION     0.04     0.10    10.67     0  00:52        0.10
  YS02005668           JUNCTION     0.04     0.10    10.26     0  00:52        0.10
  YS02005667           JUNCTION     0.24     0.46    10.48     0  00:51        0.46
  YS02005571           JUNCTION     0.13     0.26     9.74     0  00:53        0.26
  YS02005572           JUNCTION     0.10     0.19     9.54     0  00:53        0.19
  YS02005576           JUNCTION     0.10     0.20     9.96     0  00:53        0.20
  YS02005577           JUNCTION     0.09     0.18     9.66     0  00:53        0.18
  YS02005579           JUNCTION     0.18     0.54    10.16     0  00:53        0.54
  YS02005580           JUNCTION     0.11     0.25     9.78     0  00:53        0.25
  YS02005582           JUNCTION     0.27     0.86    10.94     0  00:50        0.86
  YS02005583           JUNCTION     0.14     0.86    10.85     0  00:50        0.41
  YS02005612           JUNCTION     0.36     1.05     9.18     0  00:52        1.05
  YS02005615           JUNCTION     0.05     0.13    11.62     0  00:51        0.13
  YS02005616           JUNCTION     0.04     0.11    10.93     0  00:51        0.11
  YS02005618           JUNCTION     0.07     0.21    11.06     0  00:51        0.20
  YS02005619           JUNCTION     0.05     0.12    10.67     0  00:51        0.12
  YS02005621           JUNCTION     0.08     0.25    11.36     0  00:51        0.25
  YS02005622           JUNCTION     0.04     0.10    11.07     0  00:51        0.10
  YS02005625           JUNCTION     0.03     0.09    11.11     0  00:51        0.09
  YS02005627           JUNCTION     0.10     0.25    11.18     0  00:51        0.25
  YS02005628           JUNCTION     0.04     0.10    11.00     0  00:51        0.10
  YS02005630           JUNCTION     0.09     0.25    11.32     0  00:52        0.25
  YS02005631           JUNCTION     0.04     0.11    10.98     0  00:52        0.11
  YS02005633           JUNCTION     0.08     0.23    11.35     0  00:52        0.23
  YS02005634           JUNCTION     0.05     0.12    10.96     0  00:52        0.12
  YS02005636           JUNCTION     0.09     0.29    11.28     0  00:52        0.28
  YS02005637           JUNCTION     0.05     0.14    10.90     0  00:52        0.14
  YS02005639           JUNCTION     0.09     0.24    10.87     0  00:52        0.24
  YS02005640           JUNCTION     0.05     0.14    10.47     0  00:52        0.14
  YS02005642           JUNCTION     0.07     0.18    11.00     0  00:52        0.18
  YS02005644           JUNCTION     0.09     0.27    11.38     0  00:52        0.27
  YS02005645           JUNCTION     0.06     0.16    10.97     0  00:52        0.16
  YS02005647           JUNCTION     0.17     0.83    11.72     0  00:52        0.83
  YS02005648           JUNCTION     0.08     0.20    11.00     0  00:52        0.20
  YS02005650           JUNCTION     0.11     0.49    11.38     0  00:50        0.40
  YS02005671           JUNCTION     0.03     0.08    10.31     0  00:51        0.08
  YS02005673           JUNCTION     0.07     0.17    10.53     0  00:52        0.17
  YS02005674           JUNCTION     0.05     0.12    10.01     0  00:52        0.12
  YS02005676           JUNCTION     0.00     0.00    10.24     0  00:00        0.00
  YS02005680           JUNCTION     0.05     0.12    10.22     0  00:52        0.12
  YS02005682           JUNCTION     0.00     0.00    10.06     0  00:00        0.00
  YS02005683           JUNCTION     0.03     0.07     9.97     0  00:52        0.07
  YS02005376           JUNCTION     0.70     1.01    11.10     0  00:35        1.01
  YS02005378           JUNCTION     1.22     1.62    11.15     0  00:36        1.62
  YS02005381           JUNCTION     1.09     1.57    11.20     0  00:36        1.57
  YS02005624           JUNCTION     0.21     0.42    11.30     0  00:51        0.42
  YS02005384           JUNCTION     0.34     0.81    10.47     0  00:36        0.53
  YS02005677           JUNCTION     0.05     0.13    10.21     0  00:52        0.13
  YSB1105              JUNCTION     0.25     0.53    10.01     0  00:51        0.52
  YSB1106              JUNCTION     0.23     1.53    11.37     0  00:51        0.71
  YSB1109              JUNCTION     0.28     1.54    11.48     0  00:51        0.99
  YSB1112              JUNCTION     0.27     1.79    11.92     0  00:51        1.18
  YSB1115              JUNCTION     0.24     1.90    12.20     0  00:51        1.20
  YSB1118              JUNCTION     0.25     1.80    12.34     0  00:51        1.40
  YSB1121              JUNCTION     0.30     1.70    12.37     0  00:51        1.70
  YSB1124              JUNCTION     0.17     1.60    12.43     0  00:51        1.55
  YSB1128              JUNCTION     0.31     1.85    12.43     0  00:47        1.85
  YSB1132              JUNCTION     0.35     1.90    12.35     0  00:47        1.90
  YSB1228              JUNCTION     0.05     0.15    10.99     0  00:51        0.15
  YSB1202              JUNCTION     0.88     1.50    12.39     0  00:44        1.46
  YSB1135              JUNCTION     0.45     1.96    12.22     0  00:48        1.94
  YSB1138              JUNCTION     0.54     1.90    12.07     0  00:48        1.90
  YSB1141              JUNCTION     0.59     2.00    11.83     0  00:48        1.94
  YSB1145              JUNCTION     0.60     2.00    11.69     0  00:48        1.91
  YSB1148              JUNCTION     0.67     2.00    11.50     0  00:48        1.89
  YSB1151              JUNCTION     0.87     2.08    11.31     0  00:48        2.00
  YSB1154              JUNCTION     1.01     2.10    11.16     0  00:48        2.10
  YSB1198              JUNCTION     0.15     1.60    12.39     0  00:48        1.17
  YSB1192              JUNCTION     0.32     1.90    12.17     0  00:48        1.69
  YSB6556              JUNCTION     0.86     1.80    10.97     0  00:48        1.80
  YSB1205              JUNCTION     1.05     1.65    12.35     0  00:44        1.65
  YSB1209              JUNCTION     1.02     1.65    12.22     0  00:44        1.65
  YSB1212              JUNCTION     0.92     1.60    12.13     0  00:44        1.60
  YSB1215              JUNCTION     0.91     1.69    12.04     0  00:52        1.69
  YSB1218              JUNCTION     0.91     1.75    11.94     0  00:50        1.75
  YSB1221              JUNCTION     0.86     1.62    11.59     0  00:44        1.58
  YSB1224              JUNCTION     0.76     1.33    11.18     0  00:51        1.33
  YSB1195              JUNCTION     0.27     1.90    12.28     0  00:48        1.59
  YSB1189              JUNCTION     0.41     1.80    11.96     0  00:48        1.80
  YSB1186              JUNCTION     0.46     1.93    11.80     0  00:48        1.74
  YSB1183              JUNCTION     0.58     2.05    11.64     0  00:48        1.87
  YSB1180              JUNCTION     0.61     1.95    11.46     0  00:48        1.82
  YSB1177              JUNCTION     0.86     2.05    11.24     0  00:48        2.01
  YSB1174              JUNCTION     0.92     1.95    11.06     0  00:51        1.95
  YSB1171              JUNCTION     1.09     1.95    10.85     0  00:47        1.95
  YS02006553           JUNCTION     1.00     2.04     8.33     0  00:50        1.97
  YS02006561           JUNCTION     0.33     1.37     8.03     0  00:50        0.91
  YS02006562           JUNCTION     0.78     1.96     8.47     0  00:50        1.76
  YS02006556           JUNCTION     0.97     2.11     8.42     0  00:50        1.96
  YS02006558           JUNCTION     1.01     2.19     8.46     0  00:50        2.01
  YS6132               JUNCTION     0.46     3.40    10.72     0  00:54        1.61
  YS6137               JUNCTION     0.20     1.78     9.57     0  00:55        0.88
  YS6189               JUNCTION     0.30     1.41     9.20     0  00:54        0.98
  YS6184               JUNCTION     0.28     1.00     8.89     0  00:54        0.99
  YS6179               JUNCTION     0.23     0.94     8.92     0  00:55        0.89
  YS6176               JUNCTION     0.16     0.69     8.89     0  00:53        0.67
  YS6171               JUNCTION     0.17     0.47     8.88     0  00:53        0.47
  YS6168               JUNCTION     0.19     0.48     8.99     0  00:53        0.48
  YS6164               JUNCTION     0.03     0.27     9.00     0  00:54        0.26
  YS6162               JUNCTION     0.08     0.35     9.01     0  00:54        0.35
  YS6187               JUNCTION     0.33     1.43     9.21     0  00:54        1.02
  YS6363               JUNCTION     0.26     1.67     9.46     0  00:53        1.10
  YS6360               JUNCTION     0.37     2.43    10.23     0  00:54        1.29
  YS6354               JUNCTION     0.32     1.86    10.01     0  00:53        1.63
  YS6351               JUNCTION     0.39     2.16    10.37     0  00:52        1.97
  YS6350               JUNCTION     0.44     2.35    10.57     0  00:52        2.18
  YS6348               JUNCTION     0.38     2.45    10.85     0  00:52        2.44
  YS6344               JUNCTION     0.21     2.37    10.96     0  00:53        2.25
  YS6375               JUNCTION     0.07     0.26     8.69     0  00:51        0.26
  YS6377               JUNCTION     0.13     0.33     8.69     0  00:52        0.32
  YS6381               JUNCTION     0.15     0.37     8.50     0  00:52        0.37
  YS6386               JUNCTION     0.17     0.43     8.41     0  00:52        0.43
  YS6390               JUNCTION     0.39     0.58     8.27     0  00:52        0.58
  YS6394               JUNCTION     0.09     0.22     8.14     0  00:53        0.22
  YS6404               JUNCTION     0.44     2.05     9.28     0  00:54        1.16
  YS6401               JUNCTION     0.14     0.39     7.61     0  00:52        0.39
  YS02004319           JUNCTION     0.23     1.18    20.80     0  00:48        1.18
  YS02004320           JUNCTION     0.00     0.00    22.64     0  01:00        0.00
  YS02004321           JUNCTION     0.00     0.00    26.80     0  00:59        0.00
  YS02004307           JUNCTION     0.13     0.52    11.05     0  00:54        0.52
  YS02004309           JUNCTION     0.61     1.55    13.07     0  00:42        1.55
  YS02004312           JUNCTION     0.37     1.48    14.91     0  00:46        1.48
  YS02004314           JUNCTION     0.27     1.28    16.99     0  00:47        1.28
  YS02004316           JUNCTION     0.27     1.36    19.13     0  00:48        1.36
  YS02001783           JUNCTION     0.53     1.57     7.71     0  00:50        1.24
  YS02001784           JUNCTION     0.52     1.32     7.39     0  00:50        1.12
  YS02001786           JUNCTION     0.42     1.05     7.08     0  00:50        0.88
  YS02001788           JUNCTION     0.31     0.62     6.60     0  00:50        0.62
  YS02001790           JUNCTION     0.36     0.72     6.36     0  00:56        0.71
  YS02001791           JUNCTION     0.22     0.43     5.90     0  00:55        0.43
  YS02001793           JUNCTION     0.12     0.28     5.11     0  00:52        0.28
  YS02003309           JUNCTION     0.49     1.21     9.77     0  00:36        1.09
  YS02003306           JUNCTION     0.60     1.16     9.60     0  00:36        1.16
  YS02003269           JUNCTION     0.13     0.17     7.76     0  00:48        0.17
  YS02003272           JUNCTION     0.33     0.93     8.66     0  00:37        0.73
  YS02003278           JUNCTION     0.64     1.21     9.13     0  00:54        1.20
  YS02003281           JUNCTION     0.69     1.39     9.47     0  00:48        1.39
  YS02003284           JUNCTION     0.78     1.40     9.41     0  00:48        1.40
  YS02003287           JUNCTION     0.74     1.27     9.34     0  00:37        1.27
  YS02003290           JUNCTION     0.61     1.11     9.40     0  00:55        1.11
  YS02003294           JUNCTION     0.76     1.24     9.42     0  00:37        1.24
  YS02003275           JUNCTION     0.48     0.96     8.87     0  00:37        0.91
  YS02003297           JUNCTION     0.74     1.22     9.43     0  00:37        1.22
  YS02003300           JUNCTION     0.69     1.15     9.42     0  00:37        1.15
  YS02003303           JUNCTION     0.67     1.14     9.46     0  00:36        1.14
  YSB1227              JUNCTION     0.01     0.09    10.99     0  00:51        0.09
  CaochengRainPumpOutfall1 OUTFALL      0.00     0.00     6.00     0  00:00        0.00
  JiankangRainPumpOutfall2 OUTFALL      0.00     0.00     6.00     0  00:00        0.00
  JiankangRainPumpOutfall1 OUTFALL      0.00     0.00     6.00     0  00:00        0.00
  CaochengRainPumpOutfall2 OUTFALL      0.00     0.00     6.00     0  00:00        0.00
  YS02005684           OUTFALL      0.03     0.07     8.48     0  00:52        0.07
  YS02005681           OUTFALL      0.05     0.12     9.34     0  00:52        0.12
  YS02005678           OUTFALL      0.05     0.13     8.66     0  00:52        0.13
  YS02005675           OUTFALL      0.04     0.12     8.65     0  00:52        0.12
  YS02005672           OUTFALL      0.03     0.08     8.42     0  00:51        0.08
  YS02005669           OUTFALL      0.04     0.10     8.81     0  00:52        0.10
  YS02005666           OUTFALL      0.04     0.10     8.78     0  00:52        0.10
  YS02005663           OUTFALL      0.05     0.12     8.85     0  00:52        0.12
  YS02005660           OUTFALL      0.05     0.13     8.94     0  00:52        0.13
  YS02005657           OUTFALL      0.00     0.00     8.74     0  00:00        0.00
  YS02005652           OUTFALL      0.06     0.15     8.78     0  00:52        0.15
  YS02005649           OUTFALL      0.08     0.20     8.90     0  00:52        0.20
  YS02005646           OUTFALL      0.06     0.16     8.16     0  00:52        0.16
  YS02005643           OUTFALL      0.07     0.17     8.73     0  00:52        0.17
  YS02005641           OUTFALL      0.05     0.14     8.84     0  00:52        0.14
  YS02005638           OUTFALL      0.05     0.14     8.80     0  00:52        0.14
  YS02005635           OUTFALL      0.05     0.12     8.78     0  00:52        0.12
  YS02005632           OUTFALL      0.04     0.11     8.67     0  00:52        0.11
  YS02005629           OUTFALL      0.04     0.10     8.57     0  00:51        0.10
  YS02005626           OUTFALL      0.03     0.09     8.61     0  00:51        0.09
  YS02005623           OUTFALL      0.04     0.10     8.58     0  00:51        0.10
  YS02005620           OUTFALL      0.05     0.12     8.92     0  00:51        0.12
  YS02005617           OUTFALL      0.04     0.11     8.95     0  00:51        0.11
  YSB1103              OUTFALL      0.25     0.60     8.60     0  00:51        0.60
  YSB1229              OUTFALL      0.05     0.15     8.95     0  00:51        0.14
  YS02005548           OUTFALL      0.05     0.13     9.13     0  00:51        0.13
  YS02005552           OUTFALL      0.05     0.13     8.75     0  00:52        0.13
  YS02005555           OUTFALL      0.06     0.12     8.85     0  00:53        0.12
  YS02005558           OUTFALL      0.06     0.12     8.82     0  00:53        0.12
  YS02005561           OUTFALL      0.07     0.13     8.81     0  00:53        0.13
  YS02005564           OUTFALL      0.06     0.12     8.60     0  00:53        0.12
  YS02005567           OUTFALL      0.08     0.15     8.69     0  00:53        0.15
  YS02005570           OUTFALL      0.09     0.17     8.89     0  00:53        0.17
[...]
  WS6150WS6147                0.18      0.18      0.20      0.02         0.01
  WS6147WS6145                0.20      0.20      0.26      0.01         0.01
  WS6145WS6142                0.26      0.26      0.27      0.05         0.01
  WS6142WS6140                0.27      0.27      0.33      0.01         0.01
  WS6140WS6135                0.33      0.33      0.60      0.01         0.01
  WS02005154WS02005155        1.43      1.43      1.43      0.02         0.02
  WS02003201WS02003202        1.59      1.61      1.60      0.72         0.01
  WS02003200WS02003201        1.55      1.55      1.60      0.01         0.01
  WS02003198WS02003200        1.54      1.55      1.58      0.02         0.01
  WS02003196WS02003198        1.56      1.57      1.57      0.93         0.91
  WS02003195WS02003196        1.55      1.55      1.55      0.87         0.88
  WS02003193WS02003195        1.55      1.55      1.55      0.21         0.22
  WS02003188WS02003190        1.55      1.55      1.57      0.47         0.48
  WS02003187WS02003188        1.54      1.54      1.55      0.93         0.93
  WS02003202WS02003203        1.60      1.61      1.62      0.71         0.01
  WS02003190WS02003193        1.55      1.55      1.56      0.01         0.01
  WS02005155WS02003110        1.47      1.47      1.47      0.08         0.10
  WS02003203WS02003091        1.62      1.62      1.62      1.54         1.53
  WS02003091WS02003090        1.64      1.64      1.70      0.01         0.01
  WS02003090WS02003089        1.66      1.66      1.69      1.75         0.01
  WS02003089WS02003088        1.66      1.67      1.68      1.58         1.56
  WS02003088WS02003087        1.68      1.70      1.68      1.76         1.68
  WS02003087WS02003086        1.62      1.62      1.71      1.67         0.01
  WS02003086WS02003085        1.62      1.62      1.66      1.74         0.01
  WS02003085WS02003084        1.63      1.63      1.63      1.64         1.62
  WS02003084WS02003083        1.62      1.64      1.62      1.84         1.62
  WS02003083WS02003082        1.61      1.61      1.64      1.73         0.01
  WS02003082WS02003081        1.59      1.60      1.59      1.73         1.59
  WS02003081WS02003080        1.59      1.59      1.59      1.61         1.59
  WS02003080WS02003077        0.44      0.44      1.60      1.60         0.01
  WS02003073WS02003076        0.54      0.54      1.36      0.13         0.01
  HS02004901HS02004770        0.58      0.59      0.59      0.01         0.01
  HS02004876HS02004881        0.57      0.59      0.57      1.52         0.57
  HS02004870HS02004876        0.51      0.51      0.59      0.01         0.01
  HS02004049HS02004052        0.06      0.06      0.09      0.01         0.01
  HS02004048HS02004049        0.15      0.24      0.15      0.29         0.15
  HS02004046HS02004048        0.08      0.08      0.24      0.01         0.01
  HS02004043HS02004046        0.05      0.05      0.10      0.01         0.01
  HS02004041HS02004043        0.01      0.01      0.05      0.01         0.01
  HS02004028HS02004027        0.01      0.08      0.01      0.09         0.01
  HS02003143HS02003065        0.42      0.42      0.61      0.01         0.01
  HS02004842HS02004848        0.44      0.44      0.64      0.01         0.01
  HS02004837HS02004842        0.47      0.47      0.64      0.01         0.01
  HS02004830HS02004837        0.47      0.47      0.52      0.01         0.01
  HS02004824HS02004830        0.52      0.52      0.57      0.01         0.01
  HS02004817HS02004824        0.57      0.57      1.46      0.01         0.01
  HS02004770HS02004777        0.59      0.59      0.59      0.01         0.01
  HS02004799HS02004480        0.74      0.74      0.83      0.85         0.01
  HS02004792HS02004799        0.68      0.68      0.83      0.01         0.01
  HS02004788HS02004792        0.53      0.53      0.68      0.01         0.01
  HS02004785HS02004788        0.53      0.54      0.53      1.47         0.48
  HS02004777HS02004785        0.54      0.54      0.59      0.01         0.01
  HS02004480HS02004478        0.67      0.74      0.67      1.63         0.67
  HS02004479HS02004480        0.75      0.75      0.78      0.01         0.01
  HS02003013HS02003010        0.22      0.22      0.26      0.11         0.11
  HS02003010HS02003007        0.20      0.20      0.21      0.25         0.20
  HS02003007HS02003004        0.21      0.21      0.29      0.08         0.08
  HS02003004HS02003001        0.01      0.29      0.01      0.82         0.01
  HS02003065HS02003056        0.59      0.59      0.73      0.01         0.01
  HS02003042HS02003053        0.17      0.17      0.55      0.01         0.01
  HS02003028HS02003021        0.11      0.11      0.17      0.01         0.01
  HS02003021HS02003018        0.19      0.19      0.20      0.01         0.01
  HS02003018HS02003017        0.21      0.21      0.21      0.02         0.06
  HS02003017HS02003013        0.21      0.21      0.22      0.15         0.14
  HS02004862HS02004870        0.49      0.49      0.51      0.18         0.16
  HS02004848HS02004852        0.44      0.44      0.47      0.03         0.01
  HS02004856HS02004862        0.44      0.44      0.49      0.01         0.01
  HS02004852HS02004856        0.47      0.47      0.49      0.02         0.01
  HS02004024HS02004022        0.01      0.01      0.11      0.01         0.01
  HS02004022HS02004021        0.11      0.11      0.20      0.01         0.01
  HS02004021HS02004019        0.20      0.20      0.28      0.14         0.14
  HS02004019HS02003162        0.01      0.28      0.01      0.31         0.01
  HS02004052HS02004053        0.07      0.09      0.07      0.10         0.07
  HS02003122HS02003125        1.38      1.38      1.38      0.09         0.11
  HS02003119HS02003122        1.37      1.37      1.39      0.01         0.01
  HS02003116HS02003119        0.96      0.96      1.37      0.01         0.01
  HS02003111HS02003116        0.01      0.01      1.03      0.01         0.01
  HS02004018HS02004019        0.14      0.14      0.28      0.01         0.01
  HS02003056HS02003136        0.62      0.62      1.40      0.01         0.01
  HS02004017HS02004018        0.12      0.12      0.14      0.01         0.01
  HS02004013HS02004017        0.01      0.01      0.12      0.01         0.01
  HS02004802HS02004478        0.68      0.68      0.75      0.07         0.01
  HS02004478WS02006287        0.54      0.54      0.73      0.01         0.01
  HS02003145HS02003143        0.01      0.01      0.40      0.04         0.01
  HS02003136WS02003203        1.41      1.41      1.54      0.01         0.01
  HS02003108HS02003111        0.08      0.08      0.26      0.01         0.01
  HS02003100HS02003108        0.03      0.03      0.08      0.01         0.01
  HS02003088HS02003100        0.01      0.01      0.03      0.01         0.01
  HS02004817HS02004807        0.72      0.72      1.46      0.01         0.01
  HS02004807HS02004802        0.72      0.72      0.73      0.21         0.21
  HS02003053HS02003056        0.55      0.55      0.73      0.01         0.01
  HS02003039HS02003042        0.22      0.23      0.26      0.11         0.02
  HS02003036HS02003039        0.07      0.07      0.11      0.01         0.01
  YS02001759YS02001757        0.01      0.01      0.01      0.04         0.01
  YS02001770YS02001767        0.01      0.01      0.01      0.45         0.01
  YS02001767YS02001765        0.01      0.01      0.01      0.06         0.01
  YS02006561YS02001783        0.29      0.29      0.46      0.01         0.01
  YS02001783YS02001784        0.44      0.46      0.44      0.61         0.44
  YS02001784YS02001785        0.34      0.44      0.34      0.89         0.34
  YS02001790YS02001791        0.01      0.01      0.01      0.43         0.01
  YS02001910YS02001907        0.49      0.49      0.67      0.01         0.01
  YS02001786YS02001788        0.01      0.34      0.01      0.72         0.01
  YS02001915YS02001910        0.41      0.41      0.49      0.01         0.01
  YS02001918YS02001915        0.33      0.33      0.41      0.01         0.01
  YS02001923YS02001920        0.27      0.27      0.34      0.01         0.01
  YS02001926YS02001923        0.03      0.04      0.05      0.01         0.01
  YS02001929YS02001926        0.02      0.02      0.05      0.01         0.01
  YS02001932YS02001929        0.01      0.01      0.02      0.01         0.01
  YS02001935YS02001932        0.01      0.01      0.01      0.01         0.01
  YS02001920YS02001918        0.33      0.33      0.34      0.01         0.01
  YS02003290YS02003287        1.21      1.21      1.52      0.01         0.01
  YS02003294YS02003290        1.24      1.24      1.57      0.03         0.01
  YS02003297YS02003294        1.54      1.54      1.55      0.17         0.24
  YS02003275YS02003272        0.95      1.09      0.95      1.45         0.95
  YS02003300YS02003297        1.31      1.31      1.48      0.01         0.01
  YS02003303YS02003300        1.20      1.20      1.39      0.01         0.01
  YS02005582YS02005583        0.23      0.47      0.23      0.68         0.23
  YS02003272YS02003269        0.01      1.03      0.01      1.45         0.01
  YS02003278YS02003275        1.15      1.54      1.15      1.68         1.15
  YS02003281YS02003278        1.39      1.39      1.53      1.14         1.13
  YS02003284YS02003281        1.39      1.39      1.53      0.87         0.20
  YS02003287YS02003284        1.49      1.49      1.55      0.01         0.05
  YS02003306YS02003303        1.14      1.14      1.30      0.31         0.31
  YS02003309YS02003306        1.01      1.01      1.14      0.01         0.01
  YS02005600YS02005375        0.10      0.10      0.11      0.11         0.10
  YS02005384YS02005593        0.01      1.19      0.01      1.25         0.01
  YS02005595YS02005596        0.19      0.20      0.19      0.22         0.19
  YS02005612YS02005613        0.02      0.02      0.89      0.22         0.01
  YS02005553YS02005554        0.01      0.01      0.01      0.06         0.01
  YS02005556YS02005557        0.01      0.01      0.01      0.07         0.01
  YS02005571YS02005572        0.01      0.01      0.01      0.18         0.01
  YS02005579YS02005580        0.01      0.31      0.01      0.51         0.01
  YS02005580YS02005581        0.01      0.01      0.01      0.07         0.01
  YS02005583YS02005584        0.23      0.23      0.25      0.25         0.23
  YS02006553YS02006556        0.58      0.58      0.69      0.01         0.01
  YS02006556YS02006558        0.63      0.63      0.72      0.01         0.01
  YSB6556YSB1171              0.85      0.85      1.54      0.01         0.01
  YSB1202YSB1205              1.30      1.30      1.32      0.01         0.01
  YSB1205YSB1209              1.32      1.32      1.32      1.03         0.98
  YSB1209YSB1212              1.30      1.32      1.30      1.41         1.30
  YSB1212YSB1215              1.30      1.30      1.30      0.76         0.75
  YSB1215YSB1218              1.30      1.30      1.30      0.83         0.82
  YSB1218YSB1221              1.30      1.30      1.30      1.10         1.10
  YSB1221YSB1224              1.30      1.30      1.31      1.30         1.30
  YSB1224YSB1105              0.86      1.34      0.86      1.42         0.86
  YSB1189YSB1186              0.47      0.47      0.57      0.11         0.12
  YS02001907YS02006553        0.90      0.90      1.00      0.01         0.01
  YS02006562YS02006558        0.46      0.46      0.72      0.01         0.01
  YS02006558YS02006561        0.37      0.57      0.37      0.84         0.37
  YS6184YS6187                0.01      0.01      0.02      0.01         0.01
  YS6360YS6363                0.01      0.06      0.01      0.53         0.01
  YS6354YS6360                0.11      0.12      0.12      0.11         0.10
  YS6351YS6354                0.12      0.14      0.12      0.29         0.12
  YS6350YS6351                0.14      0.15      0.14      0.55         0.13
  YS6348YS6350                0.14      0.14      0.15      0.13         0.12
  YS6344YS6348                0.14      0.14      0.19      0.01         0.01
  YS6363YS6132                0.01      0.01      0.16      0.01         0.01
  YS6137YS6132                0.08      0.08      0.23      0.01         0.01
  YS6189YS6137                0.08      0.08      0.10      1.18         0.01
  YS6187YS6189                0.01      0.01      0.02      0.16         0.01
  YS6132YS6404                0.01      0.05      0.01      0.18         0.01
  YSB1106YSB1105              0.01      0.09      0.01      0.14         0.01
  YSB1109YSB1106              0.09      0.15      0.09      0.28         0.09
  YSB1112YSB1109              0.15      0.16      0.15      0.19         0.15
  YSB1115YSB1112              0.13      0.13      0.16      0.07         0.07
  YSB1118YSB1115              0.16      0.16      0.16      0.17         0.15
  YSB1121YSB1118              0.16      0.19      0.16      0.27         0.16
  YSB1124YSB1121              0.16      0.16      0.19      0.01         0.01
  YSB1105YSB1103              0.01      0.01      0.07      0.07         0.01
  YS02001882YS02001884        0.41      0.41      0.42      0.01         0.01
  YS02001884YS02001887        0.44      0.44      0.45      0.01         0.01
  YS02001890YS02001895        0.40      0.40      0.49      0.01         0.01
  YS02001895YS02001898        0.40      0.40      0.40      0.01         0.01
  YS02001898YS02001901        0.40      0.40      0.44      0.01         0.01
  YS02001901YS02001904        0.43      0.43      0.44      0.01         0.01
  YS02001904YS02001907        0.43      0.43      0.69      0.01         0.01
  YS02001887YS02001890        0.47      0.47      0.48      0.01         0.01
  YS02004309YS02004307        0.04      0.73      0.04      0.70         0.04
  YS02004319YS02004316        0.22      0.22      0.24      0.01         0.01
  YS02005376YS02005378        1.51      1.51      1.79      0.01         0.01
  YS02005378YS02005381        1.75      1.75      1.79      0.48         0.01
  YS02005381YS02005384        1.19      1.19      1.75      1.77         0.01
  YS02005598YS02005374        0.12      0.12      0.13      0.13         0.12
  YS02005602YS02005603        0.08      0.31      0.08      0.42         0.08
  YS02005603YS02005607        0.08      0.08      0.10      0.10         0.08
  YS02005621YS02005622        0.01      0.01      0.01      0.02         0.01
  YS02005624YS02005625        0.01      0.01      0.19      0.01         0.01
  YS02005630YS02005631        0.01      0.01      0.01      0.02         0.01
  YS02005636YS02005637        0.01      0.01      0.01      0.06         0.01
  YS02005627YS02005628        0.01      0.01      0.01      0.19         0.01
  YS02005644YS02005645        0.01      0.01      0.01      0.04         0.01
  YS02005650YS02005651        0.01      0.06      0.01      0.14         0.01
  YS02005653YS02005654        0.03      0.03      0.04      0.03         0.02
  YS02005654YS02005655        0.01      0.04      0.01      0.13         0.01
  YS02005661YS02005662        0.01      0.04      0.01      0.15         0.01
  YS02005664YS02005665        0.01      0.01      0.01      0.35         0.01
  YS02005667YS02005668        0.01      0.01      0.32      0.01         0.01
  YS02005647YS02005648        0.01      0.18      0.01      0.30         0.01
  YS02004312YS02004309        0.44      0.44      0.73      0.01         0.01
  YS02004314YS02004312        0.26      0.26      0.44      0.01         0.01
  YS02004316YS02004314        0.24      0.24      0.26      0.18         0.18
  YS02004320YS02004319        0.01      0.01      0.15      0.01         0.01
  YS6404YS6401                0.01      0.01      0.01      0.51         0.01
  YSB1132YSB1135              0.44      0.44      0.50      0.01         0.01
  YSB1135YSB1138              0.50      0.50      0.53      0.01         0.01
  YSB1138YSB1141              0.53      0.53      0.62      0.24         0.25
  YSB1141YSB1145              0.60      0.60      0.62      0.23         0.22
  YSB1148YSB1151              0.71      0.71      0.97      0.01         0.01
  YSB1151YSB1154              0.81      0.81      1.16      0.01         0.01
  YSB1154YSB6556              0.85      0.85      1.16      0.25         0.01
  YSB1128YSB1132              0.42      0.42      0.44      0.01         0.01
  YSB1145YSB1148              0.62      0.62      0.71      0.01         0.01
  YSB1198YSB1195              0.21      0.21      0.41      0.01         0.01
  YSB1195YSB1192              0.41      0.41      0.44      0.01         0.01
  YSB1192YSB1189              0.44      0.44      0.47      0.01         0.01
  YSB1186YSB1183              0.52      0.52      0.63      0.01         0.01
  YSB1183YSB1180              0.63      0.63      0.67      0.15         0.16
  YSB1180YSB1177              0.67      0.67      1.03      0.01         0.01
  YSB1177YSB1174              1.03      1.03      1.31      0.16         0.17
  YSB1174YSB1171              0.98      0.98      1.49      0.08         0.08
  YSB1171HS02004479           0.71      0.71      1.13      0.01         0.01
  YS02004307HS02004052        0.01      0.01      0.09      0.01         0.01
  HS02004881HS02006253        0.57      0.57      1.43      0.01         0.01
  WS0200404049WS6136          0.06      0.06      0.14      0.01         0.01
  HS02003125WS02003215        1.38      1.38      1.41      0.01         0.01
  YS02001793JiankangQianchi        0.01      0.01      2.03      0.01         0.01
  YS02001757CaochengTiaoxuchi        0.01      0.01      0.47      0.01         0.01
  WS02004041WS6409            0.93      0.93      1.02      1.03         0.93
  WSF200WS02003060            0.14      0.14      0.37      0.01         0.01
  HS02004053WS02004407        0.07      0.07      0.96      0.01         0.01
  HS02003036HS02003028        0.07      0.07      0.16      0.01         0.01
  
  
  ***************
  Pumping Summary
  ***************
  
  ---------------------------------------------------------------------------------------------------------
                                                  Min       Avg       Max     Total     Power    % Time Off
                        Percent   Number of      Flow      Flow      Flow    Volume     Usage    Pump Curve
  Pump                 Utilized   Start-Ups       LPS       LPS       LPS  10^6 ltr     Kw-hr    Low   High
  ---------------------------------------------------------------------------------------------------------
  CaochengSewagePump1     82.60           1      0.00    200.00    200.00     1.210      9.31    0.0    0.0
  CaochengSewagePump2     46.81           1      0.00    200.00    200.00     0.686      5.62    0.0    0.0
  CaochengRainPump1       36.55           1      0.00    683.00    683.00     1.829      1.91    0.0   64.3
  CaochengRainPump2        0.00           0      0.00      0.00      0.00     0.000      0.00    0.0    0.0
  JiankangSewagePump      69.47           1      0.00    300.00    300.00     1.527     24.03    0.0    0.0
  JiankangRainPump1       26.85           4      0.00   1000.00   1000.00     1.967     13.05    0.0    0.0
  JiankangRainPump2        0.00           0      0.00      0.00      0.00     0.000      0.00    0.0    0.0
  XierchiSewagePump1      91.78           1      0.00     95.00     95.00     0.639      3.95    0.0    0.0
  XierchiSewagePump2      76.24           1      0.00     95.00     95.00     0.531      3.11    0.0    0.0
  XierchiSewagePump3       0.00           0      0.00      0.00      0.00     0.000      0.00    0.0    0.0
  XierchiSewagePump4       0.00           0      0.00      0.00      0.00     0.000      0.00    0.0    0.0
  

  Analysis begun on:  Sat Oct 29 01:09:11 2022
  Analysis ended on:  Sat Oct 29 15:38:21 2022
  Total elapsed time: 14:29:10