
  EPA STORM WATER MANAGEMENT MODEL - VERSION 5.1 (Build 5.3.0.dev0)
  --------------------------------------------------------------

  WARNING 04: minimum elevation drop used for Conduit WS02004404WS02004405
  WARNING 03: negative offset ignored for Link YS02001904YS02001907
  
  *********************************************************
  NOTE: The summary statistics displayed in this report are
  based on results found at every computational time step,  
  not just on results from each reporting time step.
  *********************************************************
  
  ****************
  Analysis Options
  ****************
  Flow Units ............... LPS
  Process Models:
    Rainfall/Runoff ........ YES
    RDII ................... NO
    Snowmelt ............... NO
    Groundwater ............ NO
    Flow Routing ........... YES
    Ponding Allowed ........ NO
    Water Quality .......... NO
  Infiltration Method ...... HORTON
  Flow Routing Method ...... DYNWAVE
  Surcharge Method ......... EXTRAN
  Starting Date ............ 03/31/2017 00:00:00
  Ending Date .............. 03/31/2017 03:00:00
  Antecedent Dry Days ...... 8.0
  Report Time Step ......... 00:00:30
  Wet Time Step ............ 00:01:00
  Dry Time Step ............ 00:01:00
  Routing Time Step ........ 30.00 sec
  Variable Time Step ....... YES
  Maximum Trials ........... 8
  Number of Threads ........ 6
  Head Tolerance ........... 0.001500 m
  
  
  **************************        Volume         Depth
  Runoff Quantity Continuity     hectare-m            mm
  **************************     ---------       -------
  Initial LID Storage ......         0.144         1.225
  Total Precipitation ......        11.461        97.262
  Evaporation Loss .........         0.000         0.000
  Infiltration Loss ........         0.278         2.361
  Surface Runoff ...........         8.650        73.407
  Final Storage ............         2.689        22.816
  Continuity Error (%) .....        -0.099
  
  
  **************************        Volume        Volume
  Flow Routing Continuity        hectare-m      10^6 ltr
  **************************     ---------     ---------
  Dry Weather Inflow .......         0.171         1.714
  Wet Weather Inflow .......         8.634        86.337
  Groundwater Inflow .......         0.000         0.000
  RDII Inflow ..............         0.000         0.000
  External Inflow ..........         0.033         0.330
  External Outflow .........         4.788        47.876
  Flooding Loss ............         3.842        38.421
  Evaporation Loss .........         0.000         0.000
  Exfiltration Loss ........         0.000         0.000
  Initial Stored Volume ....         0.303         3.031
  Final Stored Volume ......         0.540         5.405
  Continuity Error (%) .....        -0.317
  
  
  *************************
  Highest Continuity Errors
  *************************
  Node WS02005193 (56.82%)
  Node YS02001884 (23.23%)
  Node YS02001774 (10.61%)
  Node HS02003116 (6.87%)
  Node YS02004320 (6.65%)
  
  
  ***************************
  Time-Step Critical Elements
  ***************************
  Link YS02005655YS02005657 (43.33%)
  Link WS02006252WS02006251 (21.98%)
  Link WS02004041WS6409 (19.36%)
  Link WS02003073WS02003076 (1.74%)
  Link YS02006556YS02006558 (1.44%)
  
  
  ********************************
  Highest Flow Instability Indexes
  ********************************
  Link WS02006238WS02006235 (65)
  Link WS02003215WS02003116 (61)
  Link WS02003200WS02003201 (59)
  Link WS02003122WS02003187 (58)
  Link YS02005562YS02005563 (58)
  
  
  *************************
  Routing Time Step Summary
  *************************
  Minimum Time Step           :     0.50 sec
  Average Time Step           :     0.94 sec
  Maximum Time Step           :    30.00 sec
  Percent in Steady State     :    -0.00
  Average Iterations per Step :     6.10
  Percent Not Converging      :    38.84
  
  
  ***************************
  Subcatchment Runoff Summary
  ***************************
  
  ------------------------------------------------------------------------------------------------------------------------------
                            Total      Total      Total      Total     Imperv       Perv      Total       Total     Peak  Runoff
                           Precip      Runon       Evap      Infil     Runoff     Runoff     Runoff      Runoff   Runoff   Coeff
  Subcatchment                 mm         mm         mm         mm         mm         mm         mm    10^6 ltr      LPS
  ------------------------------------------------------------------------------------------------------------------------------
  sub0                      97.26       0.00       0.00       0.74      88.10       5.76      93.86        0.08    59.55   0.965
  sub1                      97.26       0.00       0.00       0.94      67.46       7.19      74.66        0.50   340.39   0.768
  sub2                      97.26       0.00       0.00       3.37      50.51      22.65      73.16        0.68   377.87   0.752
  sub3                      97.26       0.00       0.00       3.24      48.14      20.61      68.76        1.55   799.54   0.707
  sub4                      97.26       0.00       0.00       0.95      66.14       7.00      73.14        1.53   862.32   0.752
  sub5                      97.26       0.00       0.00       0.57      67.71       4.44      72.15        0.82   567.27   0.742
  sub6                      97.26       0.00       0.00       0.63      73.55       4.83      78.38        2.03  1309.06   0.806
  sub7                      97.26       0.00       0.00       0.60      54.10       4.64      58.74        0.20   152.31   0.604
  sub8                      97.26       0.00       0.00       0.76      68.74       5.89      74.63        0.48   346.89   0.767
  sub9                      97.26       0.00       0.00       0.70      63.29       5.43      68.72        0.33   241.95   0.707
  sub10                     97.26       0.00       0.00       0.75      76.15       5.75      81.90        0.90   621.96   0.842
  sub11                     97.26       0.00       0.00       0.75      77.05       5.82      82.87        0.96   696.35   0.852
  sub12                     97.26       0.00       0.00       0.98      58.86       7.59      66.45        0.58   456.49   0.683
  sub13                     97.26       0.00       0.00       2.82      48.98      20.69      69.67        0.83   544.70   0.716
  sub14                     97.26       0.00       0.00       0.82      74.04       6.35      80.39        0.77   542.97   0.826
  sub15                     97.26       0.00       0.00       2.70      55.98      19.67      75.66        1.30   838.37   0.778
  sub16                     97.26       0.00       0.00       3.06      55.68      22.82      78.50        0.82   576.84   0.807
  sub17                     97.26       0.00       0.00       2.87      54.78      21.46      76.24        0.65   457.25   0.784
  sub18                     97.26       0.00       0.00       0.80      72.37       6.20      78.57        0.63   474.26   0.808
  sub19                     97.26       0.00       0.00       1.98      39.62      14.95      54.57        0.17   127.28   0.561
  sub20                     97.26       0.00       0.00       0.78      70.33       6.03      76.36        0.53   396.75   0.785
  sub21                     97.26       0.00       0.00       0.95      62.73       7.38      70.11        0.36   275.01   0.721
  sub22                     97.26       0.00       0.00       3.63      43.01      25.93      68.94        4.36  2682.77   0.709
  sub23                     97.26       0.00       0.00       3.18      48.42      23.24      71.66        3.42  2242.97   0.737
  sub24                     97.26       0.00       0.00       1.22      67.01       9.38      76.39        2.74  2073.61   0.785
  sub25                     97.26       0.00       0.00       0.59      71.33       4.66      75.99        0.98   808.30   0.781
  sub26                     97.26       0.00       0.00       2.08      59.67      16.14      75.81        1.08   894.24   0.779
  sub27                     97.26       0.00       0.00       0.78      70.49       6.04      76.53        1.11   784.54   0.787
  sub28                     97.26       0.00       0.00       0.71      72.35       5.47      77.81        1.22   857.85   0.800
  sub29                     97.26       0.00       0.00       0.71      71.77       5.43      77.20        1.24   794.00   0.794
  sub30                     97.26       0.00       0.00       0.56      58.21       4.39      62.60        1.41  1118.69   0.644
  sub31                     97.26       0.00       0.00       1.47      64.79      11.40      76.19        1.62  1271.88   0.783
  sub32                     97.26       0.00       0.00       0.63      65.00       4.91      69.91        1.39  1054.80   0.719
  sub33                     97.26       0.00       0.00       0.99      59.95       7.73      67.67        1.24   976.40   0.696
  sub34                     97.26       0.00       0.00       5.26      47.46      38.89      86.35        1.93  1295.67   0.888
  sub35                     97.26       0.00       0.00       0.72      75.21       5.67      80.88        0.28   250.05   0.832
  sub36                     97.26       0.00       0.00       2.31      74.05      17.86      91.91        0.80   628.70   0.945
  sub37                     97.26       0.00       0.00       3.43      48.57      26.26      74.82        0.57   444.21   0.769
  sub38                     97.26       0.00       0.00       3.00      50.55      23.17      73.72        1.40  1147.66   0.758
  sub39                     97.26       0.00       0.00       0.72      75.20       5.67      80.87        0.86   719.28   0.831
  sub40                     97.26       0.00       0.00       0.57      59.45       4.48      63.93        0.74   642.08   0.657
  sub41                     97.26       0.00       0.00       1.25      59.09       9.69      68.78        1.32  1081.57   0.707
  sub42                     97.26       0.00       0.00       0.59      54.36       4.66      59.02        0.59   509.02   0.607
  sub43                     97.26       0.00       0.00       3.75      55.03      27.94      82.97        0.68   471.72   0.853
  sub44                     97.26       0.00       0.00       0.54      64.13       4.20      68.33        0.77   560.25   0.703
  sub45                     97.26       0.00       0.00       1.42      62.09      10.86      72.95        1.34   973.29   0.750
  sub46                     97.26       0.00       0.00       5.44      28.93      39.83      68.76        0.48   298.91   0.707
  sub47                     97.26       0.00       0.00       0.62      64.11       4.84      68.95        0.53   401.40   0.709
  sub48                     97.26       0.00       0.00       0.64      57.81       4.95      62.77        0.48   366.66   0.645
  sub49                     97.26       0.00       0.00       0.61      62.83       4.74      67.58        0.62   455.29   0.695
  sub50                     97.26       0.00       0.00       0.54      55.79       4.21      60.00        0.42   316.65   0.617
  sub51                     97.26       0.00       0.00       0.48      50.25       3.79      54.04        0.26   200.66   0.556
  sub52                     97.26       0.00       0.00       0.57      67.19       4.40      71.59        0.78   563.88   0.736
  sub53                     97.26       0.00       0.00       0.63      65.32       4.93      70.25        0.71   537.81   0.722
  sub54                     97.26       0.00       0.00       0.52      61.50       4.03      65.53        0.39   274.71   0.674
  sub55                     97.26       0.00       0.00       0.58      59.30       4.48      63.77        0.51   368.43   0.656
  sub56                     97.26       0.00       0.00       1.65      61.79      12.12      73.92        1.05   659.85   0.760
  sub57                     97.26       0.00       0.00       2.63      52.05      19.07      71.13        0.46   292.52   0.731
  sub58                     97.26       0.00       0.00       7.16      23.82      45.50      69.32        2.56  1132.17   0.713
  sub59                     97.26       0.00       0.00       7.21      19.34      41.37      60.71        1.39   539.90   0.624
  sub60                     97.26       0.00       0.00       0.78      51.49       6.06      57.55        0.76   578.76   0.592
  sub61                     97.26       0.00       0.00       1.42      62.25      10.91      73.15        1.34   998.63   0.752
  sub62                     97.26       0.00       0.00       0.61      62.54       4.72      67.26        1.84  1300.37   0.692
  sub67                     97.26       0.00       0.00       0.67      68.76       5.19      73.95        1.38   972.24   0.760
  sub68                     97.26       0.00       0.00       1.07      58.78       8.21      67.00        1.84  1338.48   0.689
  sub71                     97.26       0.00       0.00       0.60      60.96       4.61      65.56        1.71  1138.17   0.674
  sub72                     97.26       0.00       0.00       0.54      62.21       4.09      66.30        0.91   566.97   0.682
  sub73                     97.26       0.00       0.00       2.21      74.99      17.06      92.05        0.09    71.13   0.946
  sub74                     97.26       0.00       0.00       3.37      64.52      25.64      90.16        0.15   110.12   0.927
  sub75                     97.26       0.00       0.00       3.15      66.51      24.19      90.70        0.20   155.82   0.933
  sub76                     97.26       0.00       0.00       1.89      77.70      14.62      92.32        0.23   175.88   0.949
  sub77                     97.26       0.00       0.00       1.79      78.77      13.86      92.63        0.15   116.68   0.952
  sub78                     97.26       0.00       0.00       1.12      67.34       8.67      76.02        0.21   162.12   0.782
  sub79                     97.26       0.00       0.00       2.52      71.69      19.15      90.83        0.23   171.51   0.934
  sub80                     97.26       0.00       0.00       3.47      63.51      26.32      89.83        0.26   196.27   0.924
  sub81                     97.26       0.00       0.00       3.89      59.60      29.09      88.69        0.27   191.93   0.912
  sub82                     97.26       0.00       0.00       3.89      59.70      29.29      88.99        0.27   194.33   0.915
  sub83                     97.26       0.00       0.00       4.00      58.84      30.21      89.06        0.30   221.41   0.916
  sub84                     97.26       0.00       0.00       2.83      47.38      21.34      68.72        0.37   271.12   0.707
  sub85                     97.26       0.00       0.00       2.10      59.67      15.97      75.64        0.34   250.05   0.778
  sub86                     97.26       0.00       0.00       2.73      69.83      20.69      90.53        0.44   318.25   0.931
  sub87                     97.26       0.00       0.00       3.68      61.56      27.73      89.28        0.27   194.81   0.918
  sub88                     97.26       0.00       0.00       3.58      62.54      27.04      89.57        0.27   201.47   0.921
  sub89                     97.26       0.00       0.00       3.26      65.54      24.95      90.48        0.24   185.69   0.930
  sub90                     97.26       0.00       0.00       2.84      69.22      21.73      90.95        0.22   171.86   0.935
  sub91                     97.26       0.00       0.00       2.84      69.47      21.93      91.41        0.17   133.89   0.940
  sub92                     97.26       0.00       0.00       3.26      65.80      25.25      91.05        0.14   114.06   0.936
  sub93                     97.26       0.00       0.00       3.26      65.83      25.27      91.10        0.16   138.99   0.937
  sub94                     97.26       0.00       0.00       3.26      65.67      25.10      90.77        0.20   157.20   0.933
  sub95                     97.26       0.00       0.00       3.05      67.62      23.57      91.19        0.14   112.57   0.938
  sub96                     97.26       0.00       0.00       2.31      74.48      18.07      92.55        0.17   149.76   0.952
  sub97                     97.26       0.00       0.00       6.41      37.34      49.58      86.92        0.20   166.75   0.894
  sub98                     97.26       0.00       0.00       7.57      26.74      56.22      82.96        0.27   169.84   0.853
  sub99                     97.26       0.00       0.00       8.31      20.03      58.49      78.52        0.28   137.93   0.807
  sub100                    97.26       0.00       0.00       8.31      19.98      55.80      75.78        0.27   118.77   0.779
  sub101                    97.26       0.00       0.00       8.31      19.98      55.52      75.49        0.25   112.86   0.776
  sub102                    97.26       0.00       0.00       7.99      22.76      51.40      74.16        0.22    96.37   0.762
  sub103                    97.26       0.00       0.00       8.20      20.86      51.53      72.39        0.34   141.63   0.744
  sub104                    97.26       0.00       0.00       8.20      20.85      50.94      71.79        0.38   153.13   0.738
  sub105                    97.26       0.00       0.00       8.52      18.04      52.83      70.87        0.40   157.92   0.729
  sub106                    97.26       0.00       0.00       8.31      19.95      53.86      73.82        0.38   159.55   0.759
  sub107                    97.26       0.00       0.00       7.01      14.92      48.41      63.33        0.45   208.95   0.651
  sub108                    97.26       0.00       0.00       8.62      17.19      61.06      78.25        0.73   362.34   0.805
  sub109                    97.26       0.00       0.00       6.14      31.26      44.79      76.05        1.08   662.78   0.782
  sub110                    97.26       0.00       0.00       1.67      68.25      12.82      81.07        1.70  1293.31   0.833
  sub111                    97.26       0.00       0.00       2.73      69.91      20.76      90.67        0.78   574.44   0.932
  sub112                    97.26       0.00       0.00       2.21      74.65      16.91      91.56        0.72   545.34   0.941
  sub113                    97.26       0.00       0.00       1.47      81.22      11.37      92.59        0.64   487.92   0.952
  sub114                    97.26       0.00       0.00       1.37      82.19      10.58      92.77        0.61   470.01   0.954
  sub115                    97.26       0.00       0.00       1.05      69.11       8.13      77.24        0.57   440.83   0.794
  sub116                    97.26       0.00       0.00       4.21      56.65      30.96      87.60        0.16   109.16   0.901
  sub117                    97.26       0.00       0.00       4.31      55.84      32.01      87.85        0.40   277.60   0.903
  

  ***********************
  LID Performance Summary
  ***********************

  --------------------------------------------------------------------------------------------------------------------
                                         Total      Evap     Infil   Surface    Drain    Initial     Final  Continuity
                                        Inflow      Loss      Loss   Outflow   Outflow   Storage   Storage       Error
  Subcatchment      LID Control             mm        mm        mm        mm        mm        mm        mm           %
  --------------------------------------------------------------------------------------------------------------------
  sub1              GreenRoof            97.26      0.00      0.00      0.00      0.00      7.05    104.31       -0.00
  sub2              GreenRoof            97.26      0.00      0.00      0.00      0.00      7.05    104.31       -0.00
  sub3              GreenRoof            97.26      0.00      0.00      0.00      0.00      7.05    104.31       -0.00
  sub4              GreenRoof            97.26      0.00      0.00      0.00      0.00      7.05    104.31       -0.00
  sub5              GreenRoof            97.26      0.00      0.00      0.00      0.00      7.05    104.31       -0.00
  sub6              GreenRoof            97.26      0.00      0.00      0.00      0.00      7.05    104.31       -0.00
  sub7              GreenRoof            97.26      0.00      0.00      0.00      0.00      7.05    104.31       -0.00
  sub8              GreenRoof            97.26      0.00      0.00      0.00      0.00      7.05    104.31       -0.00
  sub9              GreenRoof            97.26      0.00      0.00      0.00      0.00      7.05    104.31       -0.00
  sub10             GreenRoof            97.26      0.00      0.00      0.00      0.00      7.05    104.31       -0.00
  sub11             GreenRoof            97.26      0.00      0.00      0.00      0.00      7.05    104.31       -0.00
  sub12             GreenRoof            97.26      0.00      0.00      0.00      0.00      7.05    104.31       -0.00
  sub13             GreenRoof            97.26      0.00      0.00      0.00      0.00      7.05    104.31       -0.00
  sub14             GreenRoof            97.26      0.00      0.00      0.00      0.00      7.05    104.31       -0.00
  sub15             GreenRoof            97.26      0.00      0.00      0.00      0.00      7.05    104.31       -0.00
  sub16             GreenRoof            97.26      0.00      0.00      0.00      0.00      7.05    104.31       -0.00
  sub17             GreenRoof            97.26      0.00      0.00      0.00      0.00      7.05    104.31       -0.00
  sub18             GreenRoof            97.26      0.00      0.00      0.00      0.00      7.05    104.31       -0.00
  sub19             GreenRoof            97.26      0.00      0.00      0.00      0.00      7.05    104.31       -0.00
  sub20             GreenRoof            97.26      0.00      0.00      0.00      0.00      7.05    104.31       -0.00
  sub21             GreenRoof            97.26      0.00      0.00      0.00      0.00      7.05    104.31       -0.00
  sub22             GreenRoof            97.26      0.00      0.00      0.00      0.00      7.05    104.31       -0.00
  sub23             GreenRoof            97.26      0.00      0.00      0.00      0.00      7.05    104.31       -0.00
  sub24             GreenRoof            97.26      0.00      0.00      0.00      0.00      7.05    104.31       -0.00
  sub25             GreenRoof            97.26      0.00      0.00      0.00      0.00      7.05    104.31       -0.00
  sub26             GreenRoof            97.26      0.00      0.00      0.00      0.00      7.05    104.31       -0.00
  sub27             GreenRoof            97.26      0.00      0.00      0.00      0.00      7.05    104.31       -0.00
  sub28             GreenRoof            97.26      0.00      0.00      0.00      0.00      7.05    104.31       -0.00
  sub29             GreenRoof            97.26      0.00      0.00      0.00      0.00      7.05    104.31       -0.00
  sub30             GreenRoof            97.26      0.00      0.00      0.00      0.00      7.05    104.31       -0.00
  sub31             GreenRoof            97.26      0.00      0.00      0.00      0.00      7.05    104.31       -0.00
  sub32             GreenRoof            97.26      0.00      0.00      0.00      0.00      7.05    104.31       -0.00
  sub33             GreenRoof            97.26      0.00      0.00      0.00      0.00      7.05    104.31       -0.00
  sub35             GreenRoof            97.26      0.00      0.00      0.00      0.00      7.05    104.31       -0.00
  sub37             GreenRoof            97.26      0.00      0.00      0.00      0.00      7.05    104.31       -0.00
  sub38             GreenRoof            97.26      0.00      0.00      0.00      0.00      7.05    104.31       -0.00
  sub39             GreenRoof            97.26      0.00      0.00      0.00      0.00      7.05    104.31       -0.00
  sub40             GreenRoof            97.26      0.00      0.00      0.00      0.00      7.05    104.31       -0.00
  sub41             GreenRoof            97.26      0.00      0.00      0.00      0.00      7.05    104.31       -0.00
  sub42             GreenRoof            97.26      0.00      0.00      0.00      0.00      7.05    104.31       -0.00
  sub43             GreenRoof            97.26      0.00      0.00      0.00      0.00      7.05    104.31       -0.00
  sub44             GreenRoof            97.26      0.00      0.00      0.00      0.00      7.05    104.31       -0.00
  sub45             GreenRoof            97.26      0.00      0.00      0.00      0.00      7.05    104.31       -0.00
  sub46             GreenRoof            97.26      0.00      0.00      0.00      0.00      7.05    104.31       -0.00
  sub47             GreenRoof            97.26      0.00      0.00      0.00      0.00      7.05    104.31       -0.00
  sub48             GreenRoof            97.26      0.00      0.00      0.00      0.00      7.05    104.31       -0.00
  sub49             GreenRoof            97.26      0.00      0.00      0.00      0.00      7.05    104.31       -0.00
  sub50             GreenRoof            97.26      0.00      0.00      0.00      0.00      7.05    104.31       -0.00
  sub51             GreenRoof            97.26      0.00      0.00      0.00      0.00      7.05    104.31       -0.00
  sub52             GreenRoof            97.26      0.00      0.00      0.00      0.00      7.05    104.31       -0.00
  sub53             GreenRoof            97.26      0.00      0.00      0.00      0.00      7.05    104.31       -0.00
  sub54             GreenRoof            97.26      0.00      0.00      0.00      0.00      7.05    104.31       -0.00
  sub55             GreenRoof            97.26      0.00      0.00      0.00      0.00      7.05    104.31       -0.00
  sub56             GreenRoof            97.26      0.00      0.00      0.00      0.00      7.05    104.31       -0.00
  sub57             GreenRoof            97.26      0.00      0.00      0.00      0.00      7.05    104.31       -0.00
  sub58             GreenRoof            97.26      0.00      0.00      0.00      0.00      7.05    104.31       -0.00
  sub59             GreenRoof            97.26      0.00      0.00      0.00      0.00      7.05    104.31       -0.00
  sub60             GreenRoof            97.26      0.00      0.00      0.00      0.00      7.05    104.31       -0.00
  sub61             GreenRoof            97.26      0.00      0.00      0.00      0.00      7.05    104.31       -0.00
  sub62             GreenRoof            97.26      0.00      0.00      0.00      0.00      7.05    104.31       -0.00
  sub67             GreenRoof            97.26      0.00      0.00      0.00      0.00      7.05    104.31       -0.00
  sub68             GreenRoof            97.26      0.00      0.00      0.00      0.00      7.05    104.31       -0.00
  sub71             GreenRoof            97.26      0.00      0.00      0.00      0.00      7.05    104.31       -0.00
  sub72             GreenRoof            97.26      0.00      0.00      0.00      0.00      7.05    104.31       -0.00
  sub78             GreenRoof            97.26      0.00      0.00      0.00      0.00      7.05    104.31       -0.00
  sub84             GreenRoof            97.26      0.00      0.00      0.00      0.00      7.05    104.31       -0.00
  sub85             GreenRoof            97.26      0.00      0.00      0.00      0.00      7.05    104.31       -0.00
  sub107            GreenRoof            97.26      0.00      0.00      0.00      0.00      7.05    104.31       -0.00
  sub109            GreenRoof            97.26      0.00      0.00      0.00      0.00      7.05    104.31       -0.00
  sub110            GreenRoof            97.26      0.00      0.00      0.00      0.00      7.05    104.31       -0.00
  sub115            GreenRoof            97.26      0.00      0.00      0.00      0.00      7.05    104.31       -0.00
  
  ******************
  Node Depth Summary
  ******************
  
  ---------------------------------------------------------------------------------
                                 Average  Maximum  Maximum  Time of Max    Reported
                                   Depth    Depth      HGL   Occurrence   Max Depth
  Node                 Type       Meters   Meters   Meters  days hr:min      Meters
  ---------------------------------------------------------------------------------
  WS02001211           JUNCTION     0.99     2.40     7.24     0  00:48        1.78
  WS02001212           JUNCTION     0.76     2.07     7.13     0  00:48        1.55
  WS02001213           JUNCTION     1.00     2.31     7.07     0  00:48        1.85
  WS02003069           JUNCTION     0.96     1.69     6.27     0  00:52        1.68
  WS02003072           JUNCTION     1.02     1.59     5.96     0  00:52        1.58
  WS02003073           JUNCTION     1.25     1.70     5.77     0  00:52        1.70
  WS02003076           JUNCTION     0.98     1.36     5.58     0  00:52        1.36
  WS02003060           JUNCTION     0.84     1.68     6.61     0  00:52        1.67
  WS02003066           JUNCTION     0.50     1.17     6.72     0  00:52        1.16
  WS02003059           JUNCTION     1.07     2.05     6.73     0  00:48        1.92
  WS02003115           JUNCTION     2.00     2.76     9.62     0  00:34        2.73
  WS02003116           JUNCTION     2.14     3.03     9.74     0  00:25        2.93
  WS02003118           JUNCTION     2.13     2.90     9.52     0  00:25        2.90
  WS02003215           JUNCTION     2.02     2.80     9.66     0  00:34        2.80
  WS02003110           JUNCTION     1.64     2.34     9.59     0  00:51        2.34
  WS02003111           JUNCTION     1.76     2.35     9.44     0  00:34        2.35
  WS02005155           JUNCTION     1.62     2.44     9.75     0  00:51        2.44
  WS02005154           JUNCTION     1.38     2.33     9.97     0  00:51        2.33
  WS02005193           JUNCTION     1.47     3.22    11.04     0  00:46        2.98
  WS02005196           JUNCTION     1.44     3.31    11.16     0  00:46        2.95
  WS02003067           JUNCTION     0.83     1.48     6.80     0  00:52        1.47
  WS02004401           JUNCTION     1.46     2.52     8.52     0  00:50        2.47
  WS02004402           JUNCTION     1.46     2.54     8.50     0  00:50        2.46
  WS02004403           JUNCTION     1.44     2.53     8.46     0  00:50        2.47
  WS02004404           JUNCTION     1.49     2.59     8.44     0  00:50        2.52
  WS02004406           JUNCTION     1.42     2.52     8.35     0  00:50        2.49
  WS02004409           JUNCTION     1.19     2.34     8.11     0  00:50        2.31
  WS02004410           JUNCTION     1.09     2.10     7.82     0  00:52        2.09
  WS02004411           JUNCTION     1.01     1.88     7.56     0  00:52        1.88
  WS02004412           JUNCTION     0.93     1.64     7.28     0  00:52        1.63
  WS02004413           JUNCTION     0.97     1.55     7.02     0  00:52        1.54
  WS02004405           JUNCTION     1.46     2.56     8.41     0  00:50        2.51
  WS02006109           JUNCTION     1.95     2.64     9.26     0  00:44        2.64
  WS02006110           JUNCTION     1.76     2.49     9.07     0  00:50        2.48
  WS02006111           JUNCTION     1.16     2.00     8.70     0  00:59        1.99
  WS02006112           JUNCTION     1.77     2.68     8.56     0  00:00        2.68
  WS02006113           JUNCTION     1.24     2.00     8.89     0  00:50        1.99
  WS02006115           JUNCTION     1.44     2.42     8.56     0  00:50        2.39
  WS02006116           JUNCTION     1.48     2.51     8.55     0  00:50        2.45
  WS02006230           JUNCTION     2.03     2.65     9.39     0  00:39        2.65
  WS02006231           JUNCTION     1.63     2.19     9.31     0  01:05        2.19
  WS02006232           JUNCTION     1.67     2.18     9.22     0  00:39        2.18
  WS02006234           JUNCTION     1.50     1.96     9.12     0  00:38        1.96
  WS02006235           JUNCTION     1.48     1.93     9.10     0  01:16        1.93
  WS02006238           JUNCTION     1.49     1.93     9.08     0  01:01        1.93
  WS02006240           JUNCTION     1.28     1.63     8.92     0  01:21        1.62
  WS02006242           JUNCTION     1.26     1.55     8.82     0  00:26        1.55
  WS02006243           JUNCTION     1.10     1.40     8.82     0  00:27        1.37
  WS02006245           JUNCTION     1.03     1.27     8.76     0  01:41        1.27
  WS02006247           JUNCTION     1.01     1.23     8.73     0  01:23        1.23
  WS02006248           JUNCTION     0.92     1.10     8.69     0  00:27        1.10
  WS02006249           JUNCTION     0.92     1.09     8.69     0  00:29        1.09
  WS02006239           JUNCTION     1.39     1.79     9.00     0  01:16        1.78
  WS02006251           JUNCTION     1.38     2.21     9.88     0  00:46        2.16
  WS02006252           JUNCTION     0.96     1.50     9.74     0  00:46        1.50
  WS02006253           JUNCTION     1.64     3.19    10.83     0  00:46        3.15
  WS02006256           JUNCTION     1.88     2.35     9.28     0  00:17        2.35
  WS02004138           JUNCTION     0.12     0.14     7.39     0  00:33        0.14
  WS02004139           JUNCTION     0.93     2.37     7.28     0  00:48        1.71
  WS02004407           JUNCTION     0.83     2.10     8.41     0  00:50        1.96
  WS02006228           JUNCTION     2.17     3.03     9.68     0  00:49        3.03
  WS02006229           JUNCTION     2.27     3.23     9.92     0  00:58        3.22
  WS02006280           JUNCTION     0.98     1.75    10.02     0  00:50        1.74
  WS02006284           JUNCTION     1.15     1.95    10.35     0  00:49        1.94
  WS02006287           JUNCTION     0.90     1.74    10.70     0  00:49        1.73
  WS02003091           JUNCTION     2.90     4.43    10.23     0  00:00        3.91
  WS02003203           JUNCTION     2.84     3.83     9.82     0  00:00        3.83
  WS6145               JUNCTION     0.39     2.33    10.43     0  00:52        2.32
  WS6147               JUNCTION     0.32     2.25    10.53     0  00:51        2.24
  WS6150               JUNCTION     0.32     2.23    10.56     0  00:51        2.22
  WS6152               JUNCTION     0.33     2.20    10.54     0  00:50        2.20
  WS6155               JUNCTION     0.29     2.10    10.50     0  00:50        2.10
  WS6156               JUNCTION     0.27     2.05    10.52     0  00:50        2.05
  WS6136               JUNCTION     0.35     1.90    10.85     0  00:51        1.90
  WS6140               JUNCTION     0.44     2.47    10.41     0  00:52        2.45
  WS6142               JUNCTION     0.39     2.34    10.42     0  00:51        2.33
  WS6325               JUNCTION     0.65     2.74    10.39     0  00:52        2.72
  WS6327               JUNCTION     0.51     2.58    10.40     0  00:52        2.57
  WS6329               JUNCTION     0.47     2.52    10.40     0  00:52        2.50
  WS6332               JUNCTION     0.40     2.51    10.54     0  00:49        2.35
  WS6158               JUNCTION     0.25     2.05    10.59     0  00:50        2.05
  WS6335               JUNCTION     0.39     2.59    10.66     0  00:49        2.39
  WS6338               JUNCTION     0.34     2.55    10.75     0  00:49        2.46
  WS6340               JUNCTION     0.30     2.50    10.84     0  00:49        2.50
  WS6342               JUNCTION     0.23     2.50    11.10     0  00:49        2.23
  WS6135               JUNCTION     0.81     2.89    10.39     0  00:52        2.88
  WS6396               JUNCTION     0.51     2.02     9.57     0  00:52        2.01
  WS6399               JUNCTION     0.31     1.37     8.81     0  00:52        1.36
  WS02003082           JUNCTION     1.39     1.93     7.00     0  00:53        1.92
  WS02003077           JUNCTION     0.48     0.84     5.85     0  00:52        0.84
  WS02003080           JUNCTION     0.91     1.30     6.24     0  00:52        1.29
  WS02003083           JUNCTION     1.78     2.41     7.44     0  00:52        2.40
  WS02003084           JUNCTION     1.92     2.60     7.70     0  00:51        2.59
  WS02003085           JUNCTION     2.01     2.71     7.89     0  00:56        2.71
  WS02003086           JUNCTION     2.25     3.02     8.22     0  00:52        3.01
  WS02003087           JUNCTION     2.53     3.36     8.57     0  00:53        3.35
  WS02003088           JUNCTION     2.72     4.14     9.43     0  00:00        4.07
  WS02003089           JUNCTION     2.85     4.34     9.80     0  00:00        4.02
  WS02003090           JUNCTION     3.07     4.12     9.55     0  00:00        4.05
  WS02003081           JUNCTION     1.13     1.61     6.66     0  00:52        1.60
  WS02003122           JUNCTION     2.32     3.11     9.48     0  00:56        3.10
  WS02003187           JUNCTION     2.34     3.11     9.44     0  00:24        3.11
  WS02003188           JUNCTION     2.32     2.97     9.23     0  00:46        2.97
  WS02003190           JUNCTION     2.31     2.84     9.04     0  00:32        2.84
  WS02003193           JUNCTION     2.30     2.85     9.09     0  00:23        2.85
  WS02003195           JUNCTION     2.32     2.93     9.18     0  00:32        2.93
  WS02003196           JUNCTION     2.44     3.12     9.30     0  00:51        3.12
  WS02003198           JUNCTION     2.47     3.22     9.41     0  00:51        3.22
  WS02003200           JUNCTION     2.23     2.99     9.42     0  00:32        2.93
  WS02003201           JUNCTION     2.50     3.22     9.36     0  00:32        3.22
  WS02003202           JUNCTION     2.65     4.17    10.23     0  00:00        3.48
  WS02004041           JUNCTION     0.66     0.98     5.34     0  00:52        0.98
  WSA6400              JUNCTION     1.12     2.42     8.26     0  00:51        2.40
  WS6400               JUNCTION     0.47     1.69     8.35     0  00:52        1.69
  WSF208               JUNCTION     0.82     1.94     8.04     0  00:51        1.94
  WSF207               JUNCTION     0.72     1.69     7.83     0  00:52        1.69
  WSF206               JUNCTION     0.80     1.74     7.67     0  00:51        1.73
  WSF205               JUNCTION     0.74     1.61     7.52     0  00:52        1.61
  WSF204               JUNCTION     1.27     2.17     7.32     0  00:52        2.17
  WSF203               JUNCTION     0.64     1.37     7.07     0  00:52        1.36
  WSF202               JUNCTION     0.57     1.20     6.92     0  00:52        1.18
  WSF201               JUNCTION     0.48     1.04     6.77     0  00:52        1.04
  WSF200               JUNCTION     0.63     1.45     6.69     0  00:52        1.45
  HS02004901           JUNCTION     0.73     1.42    11.24     0  00:43        1.42
  HS02004881           JUNCTION     0.58     2.15    11.18     0  00:46        1.88
  HS02004876           JUNCTION     0.71     2.14    11.17     0  00:51        2.14
  HS02004870           JUNCTION     0.61     2.10    11.39     0  00:46        2.03
  HS02004862           JUNCTION     0.62     2.00    11.38     0  00:46        2.00
  HS02004856           JUNCTION     0.65     2.07    11.50     0  00:46        2.07
  HS02004852           JUNCTION     0.59     2.12    11.63     0  00:46        2.12
  HS02004848           JUNCTION     0.57     2.07    11.67     0  00:46        2.01
  HS02004842           JUNCTION     0.88     2.22    11.49     0  00:46        2.22
  HS02004837           JUNCTION     0.60     2.04    11.62     0  00:46        1.93
  HS02004830           JUNCTION     0.67     2.03    11.50     0  00:46        1.99
  HS02004824           JUNCTION     0.71     2.01    11.41     0  00:46        2.01
  HS02004817           JUNCTION     1.20     2.44    11.29     0  00:46        2.41
  HS02004807           JUNCTION     0.87     1.92    11.09     0  00:46        1.92
  HS02004802           JUNCTION     0.88     1.81    10.93     0  00:49        1.80
  HS02004799           JUNCTION     0.97     1.76    10.97     0  00:44        1.76
  HS02004792           JUNCTION     0.76     1.60    11.12     0  00:41        1.60
  HS02004788           JUNCTION     0.58     1.42    11.32     0  00:44        1.41
  HS02004785           JUNCTION     0.62     1.49    11.39     0  00:44        1.39
  HS02004777           JUNCTION     0.75     1.48    11.28     0  00:43        1.46
  HS02004770           JUNCTION     0.73     1.42    11.25     0  00:43        1.42
  HS02004480           JUNCTION     0.86     1.66    10.90     0  00:46        1.63
  HS02004479           JUNCTION     0.90     1.68    10.88     0  00:46        1.67
  HS02004478           JUNCTION     0.76     1.60    10.82     0  00:49        1.58
  HS02004053           JUNCTION     0.28     1.90    10.67     0  00:50        1.09
  HS02004052           JUNCTION     0.35     1.50    11.15     0  00:50        1.38
  HS02004049           JUNCTION     0.20     1.08    11.76     0  00:50        0.86
  HS02004048           JUNCTION     0.47     1.70    12.60     0  00:49        1.70
  HS02004046           JUNCTION     0.45     1.80    13.52     0  00:49        1.80
  HS02004043           JUNCTION     0.25     2.08    14.77     0  00:49        2.00
  HS02004041           JUNCTION     0.14     0.52    15.96     0  00:52        0.52
  HS02004038           JUNCTION     0.14     0.37    19.06     0  00:52        0.37
  HS02004036           JUNCTION     0.00     0.00    22.46     0  00:00        0.00
  HS02004034           JUNCTION     0.00     0.00    26.83     0  00:00        0.00
  HS02004028           JUNCTION     0.20     0.51    37.36     0  00:48        0.51
  HS02004027           JUNCTION     0.16     0.34    36.47     0  00:48        0.34
  HS02004026           JUNCTION     0.16     0.35    35.75     0  00:48        0.34
  HS02004024           JUNCTION     0.17     0.42    34.63     0  00:48        0.40
  HS02004022           JUNCTION     0.24     0.80    33.84     0  00:48        0.80
  HS02004021           JUNCTION     0.28     0.81    32.54     0  00:46        0.81
  HS02004019           JUNCTION     0.36     0.80    31.76     0  00:44        0.80
  HS02004018           JUNCTION     0.25     0.60    33.81     0  00:47        0.60
  HS02004017           JUNCTION     0.23     0.53    34.37     0  00:47        0.53
  HS02004013           JUNCTION     0.18     0.72    35.86     0  00:50        0.72
  HS02004010           JUNCTION     0.06     0.21    38.07     0  00:52        0.21
  HS02003174           JUNCTION     0.18     0.47     6.00     0  00:52        0.47
  HS02003171           JUNCTION     0.20     0.52     6.20     0  00:52        0.52
  HS02003170           JUNCTION     0.24     0.49     6.94     0  00:52        0.49
  HS02003168           JUNCTION     0.12     0.33     6.82     0  00:52        0.33
  HS02003166           JUNCTION     0.23     0.50     6.97     0  00:52        0.50
  HS02003162           JUNCTION     0.24     0.42    30.67     0  00:44        0.42
  HS02003160           JUNCTION     0.18     0.39    28.44     0  00:51        0.38
  HS02003150           JUNCTION     0.19     0.41    26.43     0  00:51        0.41
  HS02003148           JUNCTION     0.20     0.51    22.25     0  00:51        0.50
  HS02003145           JUNCTION     0.26     0.81    14.68     0  00:49        0.81
  HS02003143           JUNCTION     0.39     0.80    13.27     0  00:41        0.80
  HS02003138           JUNCTION     0.21     0.51     7.00     0  01:41        0.51
  HS02003136           JUNCTION     1.47     2.28    10.00     0  00:00        2.28
  HS02003125           JUNCTION     1.54     2.38     9.83     0  00:34        2.28
  HS02003122           JUNCTION     1.58     2.44     9.87     0  00:34        2.38
  HS02003119           JUNCTION     1.34     2.45    10.17     0  00:34        2.16
  HS02003116           JUNCTION     1.02     2.39    10.51     0  00:34        1.74
  HS02003111           JUNCTION     0.46     0.84     9.85     0  00:51        0.84
  HS02003108           JUNCTION     0.36     0.97    10.08     0  00:47        0.77
  HS02003100           JUNCTION     0.25     0.74     9.97     0  00:51        0.69
  HS02003088           JUNCTION     0.20     0.71    10.01     0  00:51        0.67
  HS02003084           JUNCTION     0.08     0.55     9.98     0  00:52        0.55
  HS02003079           JUNCTION     0.06     0.48     9.99     0  00:52        0.47
  HS02003077           JUNCTION     0.01     0.27    10.00     0  00:51        0.27
  HS02003065           JUNCTION     0.69     1.62    10.86     0  00:51        1.62
  HS02003056           JUNCTION     0.72     1.75    10.70     0  00:48        1.71
  HS02003053           JUNCTION     0.49     1.66    10.96     0  00:48        1.58
  HS02003042           JUNCTION     0.34     1.69    11.35     0  00:48        1.36
  HS02003039           JUNCTION     0.37     1.76    11.41     0  00:48        1.44
  HS02003036           JUNCTION     0.19     1.41    11.47     0  00:48        1.22
  HS02003028           JUNCTION     0.30     1.40    11.14     0  00:48        1.40
  HS02003021           JUNCTION     0.32     1.55    10.92     0  00:48        1.49
  HS02003018           JUNCTION     0.34     1.48    10.69     0  00:48        1.48
  HS02003017           JUNCTION     0.34     1.48    10.64     0  00:48        1.48
  HS02003013           JUNCTION     0.34     1.47    10.52     0  00:48        1.42
  HS02003010           JUNCTION     0.36     1.45    10.25     0  00:48        1.30
  HS02003007           JUNCTION     0.32     1.32     9.93     0  00:48        1.09
  HS02003004           JUNCTION     0.40     1.05     9.37     0  00:48        0.98
  HS02003001           JUNCTION     0.11     0.30     8.59     0  00:52        0.30
  YS02001738           JUNCTION     0.00     0.00     8.89     0  00:00        0.00
  YS02001739           JUNCTION     0.00     0.00     8.37     0  00:00        0.00
  YS02001742           JUNCTION     0.00     0.00     8.49     0  00:00        0.00
  YS02001745           JUNCTION     0.13     0.33     7.85     0  00:53        0.33
  YS02001748           JUNCTION     0.15     0.56     7.64     0  00:53        0.55
  YS02001751           JUNCTION     0.16     0.81     7.69     0  00:53        0.73
  YS02001754           JUNCTION     0.18     2.20     8.81     0  00:52        1.17
  YS02001762           JUNCTION     0.39     2.15     8.55     0  00:52        1.91
  YS02001765           JUNCTION     0.37     2.10     8.55     0  00:52        1.94
  YS02001767           JUNCTION     0.39     2.03     8.52     0  00:51        1.96
  YS02001770           JUNCTION     0.45     1.95     8.44     0  00:51        1.95
  YS02001774           JUNCTION     0.52     2.03     8.46     0  00:53        2.02
  YS02001779           JUNCTION     0.27     1.68     8.37     0  00:51        1.68
  YS02001882           JUNCTION     0.74     1.83     8.55     0  00:46        1.77
  YS02001884           JUNCTION     0.84     1.91     8.52     0  00:46        1.83
  YS02001759           JUNCTION     0.39     2.15     8.51     0  00:51        1.81
  YS02001887           JUNCTION     0.92     1.90     8.44     0  00:46        1.86
  YS02001890           JUNCTION     0.94     1.81     8.32     0  00:46        1.81
  YS02001898           JUNCTION     0.71     1.62     8.35     0  00:46        1.56
  YS02001901           JUNCTION     0.81     1.68     8.29     0  00:47        1.67
  YS02001904           JUNCTION     0.79     1.65     8.28     0  00:47        1.63
  YS02001907           JUNCTION     1.11     1.96     8.25     0  00:47        1.96
  YS02001910           JUNCTION     0.93     2.02     8.53     0  00:49        1.94
  YS02001915           JUNCTION     0.76     2.00     8.72     0  00:49        1.88
  YS02001918           JUNCTION     0.50     1.81     8.88     0  00:47        1.60
  YS02001920           JUNCTION     0.58     2.14     9.15     0  00:49        1.70
  YS02001923           JUNCTION     0.41     2.03     9.29     0  00:49        1.48
  YS02001926           JUNCTION     0.42     1.90     9.35     0  00:49        1.31
  YS02001929           JUNCTION     0.28     1.78     9.47     0  00:49        1.10
  YS02001932           JUNCTION     0.18     1.77     9.57     0  00:49        1.02
  YS02001935           JUNCTION     0.13     1.75     9.68     0  00:49        1.05
  YS02001757           JUNCTION     0.37     2.10     8.36     0  00:51        1.57
  YS02001895           JUNCTION     0.71     1.58     8.33     0  00:46        1.56
  YS02005679           JUNCTION     0.00     0.01    10.25     0  00:51        0.01
  YS02005559           JUNCTION     0.11     0.23    10.18     0  00:53        0.23
  YS02005651           JUNCTION     0.07     0.20    10.97     0  00:52        0.20
  YS02005670           JUNCTION     0.08     0.23    10.68     0  00:52        0.23
  YS02005547           JUNCTION     0.06     0.16    10.70     0  00:51        0.16
  YS02005549           JUNCTION     0.08     0.26    11.17     0  00:51        0.25
  YS02005550           JUNCTION     0.11     0.50    11.12     0  00:50        0.41
  YS02005551           JUNCTION     0.06     0.16    10.53     0  00:52        0.16
  YS02005553           JUNCTION     0.13     0.39    10.75     0  00:51        0.37
  YS02005554           JUNCTION     0.07     0.15    10.39     0  00:53        0.15
  YS02005556           JUNCTION     0.13     0.28    10.34     0  00:53        0.28
  YS02005557           JUNCTION     0.07     0.15    10.11     0  00:53        0.15
  YS02005560           JUNCTION     0.08     0.17     9.91     0  00:53        0.17
  YS02005562           JUNCTION     0.13     0.26    10.00     0  00:52        0.26
  YS02005563           JUNCTION     0.07     0.15     9.81     0  00:53        0.15
  YS02005565           JUNCTION     0.11     0.23     9.94     0  00:53        0.23
  YS02005566           JUNCTION     0.09     0.19     9.58     0  00:53        0.19
  YS02005568           JUNCTION     0.15     0.44     9.94     0  00:50        0.41
  YS02005569           JUNCTION     0.11     0.22     9.55     0  00:53        0.22
  YS02005598           JUNCTION     0.26     1.07    10.91     0  00:46        1.07
  YS02005600           JUNCTION     0.24     1.02    10.68     0  00:47        1.02
  YS02005602           JUNCTION     0.55     2.15    10.43     0  00:47        2.15
  YS02005603           JUNCTION     0.17     1.28     9.40     0  00:47        0.58
  YS02005609           JUNCTION     0.09     0.25     9.14     0  00:52        0.25
  YS02005653           JUNCTION     0.15     0.87    11.84     0  00:50        0.87
  YS02005654           JUNCTION     0.15     0.65    11.41     0  00:51        0.65
  YS02005655           JUNCTION     0.06     0.15    10.78     0  00:50        0.15
  YS02005595           JUNCTION     0.38     1.36    11.04     0  00:45        1.36
  YS02005658           JUNCTION     0.12     0.56    11.47     0  00:52        0.56
  YS02005659           JUNCTION     0.06     0.16    10.82     0  00:52        0.16
  YS02005661           JUNCTION     0.16     0.76    11.47     0  00:52        0.76
  YS02005662           JUNCTION     0.06     0.15    10.76     0  00:52        0.15
  YS02005664           JUNCTION     0.16     0.67    11.26     0  00:52        0.67
  YS02005665           JUNCTION     0.05     0.13    10.69     0  00:52        0.13
  YS02005668           JUNCTION     0.05     0.14    10.30     0  00:52        0.14
  YS02005667           JUNCTION     0.29     0.80    10.82     0  00:51        0.80
  YS02005571           JUNCTION     0.18     0.51     9.99     0  00:53        0.50
  YS02005572           JUNCTION     0.12     0.26     9.62     0  00:53        0.26
  YS02005576           JUNCTION     0.13     0.45    10.20     0  00:52        0.35
  YS02005577           JUNCTION     0.11     0.24     9.73     0  00:53        0.24
  YS02005579           JUNCTION     0.28     1.12    10.74     0  00:50        1.12
  YS02005580           JUNCTION     0.17     0.92    10.45     0  00:50        0.69
  YS02005582           JUNCTION     0.34     0.86    10.94     0  00:49        0.86
  YS02005583           JUNCTION     0.17     0.94    10.93     0  00:49        0.41
  YS02005612           JUNCTION     0.48     1.59     9.72     0  00:50        1.59
  YS02005615           JUNCTION     0.06     0.16    11.65     0  00:51        0.16
  YS02005616           JUNCTION     0.05     0.13    10.95     0  00:51        0.12
  YS02005618           JUNCTION     0.09     0.27    11.13     0  00:51        0.27
  YS02005619           JUNCTION     0.06     0.15    10.70     0  00:51        0.15
  YS02005621           JUNCTION     0.10     0.45    11.56     0  00:51        0.33
  YS02005622           JUNCTION     0.04     0.12    11.08     0  00:51        0.12
  YS02005625           JUNCTION     0.04     0.11    11.12     0  00:51        0.11
  YS02005627           JUNCTION     0.12     0.46    11.39     0  00:51        0.46
  YS02005628           JUNCTION     0.04     0.12    11.02     0  00:51        0.11
  YS02005630           JUNCTION     0.11     0.56    11.64     0  00:50        0.48
  YS02005631           JUNCTION     0.05     0.14    11.01     0  00:52        0.14
  YS02005633           JUNCTION     0.11     0.49    11.62     0  00:51        0.49
  YS02005634           JUNCTION     0.06     0.15    10.98     0  00:52        0.15
  YS02005636           JUNCTION     0.13     0.63    11.63     0  00:51        0.63
  YS02005637           JUNCTION     0.06     0.17    10.93     0  00:52        0.17
  YS02005639           JUNCTION     0.11     0.52    11.15     0  00:52        0.52
  YS02005640           JUNCTION     0.06     0.17    10.50     0  00:52        0.17
  YS02005642           JUNCTION     0.08     0.24    11.07     0  00:52        0.24
  YS02005644           JUNCTION     0.15     0.87    11.98     0  00:51        0.87
  YS02005645           JUNCTION     0.08     0.22    11.03     0  00:51        0.22
  YS02005647           JUNCTION     0.22     1.03    11.92     0  00:50        1.03
  YS02005648           JUNCTION     0.09     0.23    11.02     0  00:50        0.23
  YS02005650           JUNCTION     0.17     0.87    11.76     0  00:51        0.87
  YS02005671           JUNCTION     0.04     0.11    10.33     0  00:51        0.11
  YS02005673           JUNCTION     0.09     0.25    10.60     0  00:52        0.25
  YS02005674           JUNCTION     0.06     0.15    10.04     0  00:52        0.15
  YS02005676           JUNCTION     0.00     0.00    10.25     0  00:51        0.00
  YS02005680           JUNCTION     0.06     0.15    10.25     0  00:52        0.15
  YS02005682           JUNCTION     0.00     0.00    10.06     0  00:00        0.00
  YS02005683           JUNCTION     0.04     0.09     9.98     0  00:52        0.09
  YS02005376           JUNCTION     0.80     1.01    11.10     0  00:29        1.01
  YS02005378           JUNCTION     1.33     1.63    11.15     0  00:29        1.63
  YS02005381           JUNCTION     1.22     1.57    11.20     0  00:29        1.57
  YS02005624           JUNCTION     0.23     0.56    11.44     0  00:51        0.56
  YS02005384           JUNCTION     0.39     1.08    10.73     0  00:29        0.71
  YS02005677           JUNCTION     0.06     0.17    10.25     0  00:52        0.17
  YSB1105              JUNCTION     0.27     0.54    10.02     0  00:50        0.54
  YSB1106              JUNCTION     0.26     1.82    11.65     0  00:50        0.75
  YSB1109              JUNCTION     0.33     1.76    11.70     0  00:50        1.05
  YSB1112              JUNCTION     0.33     1.79    11.92     0  00:50        1.28
  YSB1115              JUNCTION     0.31     1.90    12.20     0  00:49        1.27
  YSB1118              JUNCTION     0.33     1.80    12.34     0  00:49        1.43
  YSB1121              JUNCTION     0.39     1.70    12.37     0  00:49        1.70
  YSB1124              JUNCTION     0.25     1.60    12.43     0  00:49        1.55
  YSB1128              JUNCTION     0.46     1.85    12.43     0  00:44        1.51
  YSB1132              JUNCTION     0.51     1.90    12.35     0  00:44        1.63
  YSB1228              JUNCTION     0.06     0.17    11.02     0  00:51        0.17
  YSB1202              JUNCTION     0.98     1.50    12.39     0  00:41        1.46
  YSB1135              JUNCTION     0.63     2.00    12.26     0  00:44        1.82
  YSB1138              JUNCTION     0.72     1.90    12.07     0  00:44        1.90
  YSB1141              JUNCTION     0.76     1.99    11.82     0  00:44        1.87
  YSB1145              JUNCTION     0.77     1.99    11.68     0  00:44        1.84
  YSB1148              JUNCTION     0.83     2.00    11.50     0  00:44        1.89
  YSB1151              JUNCTION     1.02     2.08    11.31     0  00:44        2.00
  YSB1154              JUNCTION     1.16     2.10    11.16     0  00:44        2.10
  YSB1198              JUNCTION     0.20     1.60    12.39     0  00:45        1.60
  YSB1192              JUNCTION     0.39     1.90    12.17     0  00:45        1.84
  YSB6556              JUNCTION     0.99     1.80    10.97     0  00:44        1.80
  YSB1205              JUNCTION     1.16     1.65    12.35     0  00:41        1.65
  YSB1209              JUNCTION     1.13     1.65    12.22     0  00:41        1.65
  YSB1212              JUNCTION     1.03     1.60    12.13     0  00:48        1.60
  YSB1215              JUNCTION     1.04     1.69    12.04     0  00:50        1.69
  YSB1218              JUNCTION     1.04     1.75    11.94     0  00:49        1.75
  YSB1221              JUNCTION     0.97     1.58    11.55     0  01:03        1.58
  YSB1224              JUNCTION     0.85     1.33    11.18     0  01:08        1.33
  YSB1195              JUNCTION     0.35     1.90    12.28     0  00:45        1.90
  YSB1189              JUNCTION     0.49     1.80    11.96     0  00:45        1.80
  YSB1186              JUNCTION     0.55     1.93    11.81     0  00:45        1.82
  YSB1183              JUNCTION     0.69     2.05    11.64     0  00:45        1.93
  YSB1180              JUNCTION     0.72     1.95    11.46     0  00:45        1.85
  YSB1177              JUNCTION     0.98     2.05    11.24     0  00:45        2.02
  YSB1174              JUNCTION     1.04     1.95    11.06     0  00:49        1.95
  YSB1171              JUNCTION     1.21     1.95    10.85     0  00:44        1.95
  YS02006553           JUNCTION     1.11     2.03     8.31     0  00:47        1.99
  YS02006561           JUNCTION     0.39     1.29     7.95     0  00:47        0.91
  YS02006562           JUNCTION     0.88     1.91     8.42     0  00:47        1.79
  YS02006556           JUNCTION     1.08     2.07     8.38     0  00:47        1.97
  YS02006558           JUNCTION     1.12     2.14     8.41     0  00:47        2.03
  YS6132               JUNCTION     0.57     3.00    10.33     0  00:52        1.49
  YS6137               JUNCTION     0.29     2.52    10.31     0  00:52        1.38
  YS6189               JUNCTION     0.40     2.78    10.57     0  00:52        1.62
  YS6184               JUNCTION     0.40     2.65    10.54     0  00:52        1.78
  YS6179               JUNCTION     0.34     2.60    10.58     0  00:52        1.74
  YS6176               JUNCTION     0.25     2.40    10.60     0  00:51        1.55
  YS6171               JUNCTION     0.27     2.10    10.51     0  00:51        1.50
  YS6168               JUNCTION     0.29     2.00    10.51     0  00:51        1.54
  YS6164               JUNCTION     0.11     1.90    10.63     0  00:51        1.31
  YS6162               JUNCTION     0.16     2.10    10.75     0  00:51        1.39
  YS6187               JUNCTION     0.44     2.75    10.53     0  00:52        1.70
  YS6363               JUNCTION     0.34     2.92    10.71     0  00:56        1.26
  YS6360               JUNCTION     0.46     2.87    10.67     0  00:52        1.47
  YS6354               JUNCTION     0.45     2.60    10.75     0  00:52        1.89
  YS6351               JUNCTION     0.53     2.50    10.71     0  00:52        2.20
  YS6350               JUNCTION     0.59     2.50    10.72     0  00:50        2.39
  YS6348               JUNCTION     0.55     2.45    10.85     0  00:49        2.45
  YS6344               JUNCTION     0.37     2.27    10.87     0  00:49        2.26
  YS6375               JUNCTION     0.10     0.34     8.77     0  00:52        0.34
  YS6377               JUNCTION     0.16     0.41     8.77     0  00:52        0.41
  YS6381               JUNCTION     0.18     0.47     8.60     0  00:52        0.47
  YS6386               JUNCTION     0.21     0.55     8.53     0  00:52        0.55
  YS6390               JUNCTION     0.42     0.66     8.35     0  00:52        0.66
  YS6394               JUNCTION     0.11     0.27     8.19     0  00:52        0.27
  YS6404               JUNCTION     0.53     3.00    10.23     0  00:52        1.17
  YS6401               JUNCTION     0.17     0.42     7.63     0  00:52        0.41
  YS02004319           JUNCTION     0.32     1.18    20.80     0  00:44        1.18
  YS02004320           JUNCTION     0.00     0.00    22.64     0  01:02        0.00
  YS02004321           JUNCTION     0.00     0.00    26.80     0  01:02        0.00
  YS02004307           JUNCTION     0.16     0.52    11.05     0  00:52        0.52
  YS02004309           JUNCTION     0.77     1.55    13.07     0  00:36        1.55
  YS02004312           JUNCTION     0.51     1.48    14.91     0  00:43        1.48
  YS02004314           JUNCTION     0.38     1.28    16.99     0  00:45        1.28
  YS02004316           JUNCTION     0.38     1.36    19.13     0  00:45        1.36
  YS02001783           JUNCTION     0.61     1.52     7.66     0  00:47        1.25
  YS02001784           JUNCTION     0.59     1.27     7.34     0  00:47        1.12
  YS02001786           JUNCTION     0.47     1.02     7.05     0  00:47        0.87
  YS02001788           JUNCTION     0.35     0.62     6.60     0  00:48        0.62
  YS02001790           JUNCTION     0.40     0.72     6.36     0  00:57        0.71
  YS02001791           JUNCTION     0.25     0.44     5.91     0  00:57        0.43
  YS02001793           JUNCTION     0.13     0.29     5.12     0  00:48        0.28
  YS02003309           JUNCTION     0.53     1.21     9.77     0  00:33        1.04
  YS02003306           JUNCTION     0.64     1.16     9.60     0  00:33        1.16
  YS02003269           JUNCTION     0.13     0.17     7.76     0  00:47        0.17
  YS02003272           JUNCTION     0.36     1.03     8.76     0  00:33        0.59
  YS02003278           JUNCTION     0.70     1.21     9.13     0  00:52        1.21
  YS02003281           JUNCTION     0.76     1.39     9.47     0  00:46        1.39
  YS02003284           JUNCTION     0.84     1.40     9.41     0  00:46        1.40
  YS02003287           JUNCTION     0.79     1.27     9.34     0  00:33        1.27
  YS02003290           JUNCTION     0.65     1.11     9.40     0  01:01        1.11
  YS02003294           JUNCTION     0.80     1.24     9.42     0  00:33        1.24
  YS02003275           JUNCTION     0.52     0.99     8.90     0  00:33        0.91
  YS02003297           JUNCTION     0.78     1.22     9.43     0  00:33        1.22
  YS02003300           JUNCTION     0.72     1.15     9.42     0  00:33        1.15
  YS02003303           JUNCTION     0.70     1.14     9.46     0  00:33        1.14
  YSB1227              JUNCTION     0.01     0.12    11.02     0  00:51        0.11
  CaochengRainPumpOutfall1 OUTFALL      0.00     0.00     6.00     0  00:00        0.00
  JiankangRainPumpOutfall2 OUTFALL      0.00     0.00     6.00     0  00:00        0.00
  JiankangRainPumpOutfall1 OUTFALL      0.00     0.00     6.00     0  00:00        0.00
  CaochengRainPumpOutfall2 OUTFALL      0.00     0.00     6.00     0  00:00        0.00
  YS02005684           OUTFALL      0.03     0.09     8.49     0  00:52        0.09
  YS02005681           OUTFALL      0.06     0.15     9.37     0  00:52        0.15
  YS02005678           OUTFALL      0.06     0.17     8.70     0  00:52        0.17
  YS02005675           OUTFALL      0.06     0.15     8.69     0  00:52        0.15
  YS02005672           OUTFALL      0.04     0.11     8.44     0  00:52        0.11
  YS02005669           OUTFALL      0.05     0.13     8.85     0  00:52        0.13
  YS02005666           OUTFALL      0.05     0.13     8.81     0  00:52        0.13
  YS02005663           OUTFALL      0.06     0.14     8.88     0  00:52        0.14
  YS02005660           OUTFALL      0.06     0.16     8.97     0  00:52        0.16
  YS02005657           OUTFALL      0.00     0.00     8.74     0  00:00        0.00
  YS02005652           OUTFALL      0.07     0.20     8.83     0  00:52        0.20
  YS02005649           OUTFALL      0.09     0.23     8.93     0  00:50        0.23
  YS02005646           OUTFALL      0.08     0.22     8.22     0  00:51        0.22
  YS02005643           OUTFALL      0.08     0.24     8.80     0  00:52        0.24
  YS02005641           OUTFALL      0.06     0.17     8.86     0  00:52        0.17
  YS02005638           OUTFALL      0.06     0.17     8.83     0  00:52        0.17
  YS02005635           OUTFALL      0.06     0.15     8.81     0  00:52        0.15
  YS02005632           OUTFALL      0.05     0.14     8.69     0  00:52        0.13
  YS02005629           OUTFALL      0.04     0.11     8.59     0  00:51        0.11
  YS02005626           OUTFALL      0.04     0.11     8.63     0  00:51        0.11
  YS02005623           OUTFALL      0.04     0.12     8.59     0  00:51        0.12
  YS02005620           OUTFALL      0.05     0.15     8.94     0  00:51        0.15
  YS02005617           OUTFALL      0.05     0.13     8.96     0  00:51        0.12
  YSB1103              OUTFALL      0.28     0.60     8.60     0  00:50        0.60
  YSB1229              OUTFALL      0.06     0.17     8.97     0  00:51        0.17
  YS02005548           OUTFALL      0.06     0.16     9.16     0  00:51        0.16
  YS02005552           OUTFALL      0.06     0.15     8.78     0  00:52        0.15
  YS02005555           OUTFALL      0.07     0.15     8.88     0  00:53        0.15
  YS02005558           OUTFALL      0.07     0.15     8.85     0  00:53        0.15
  YS02005561           OUTFALL      0.08     0.17     8.85     0  00:53        0.17
  YS02005564           OUTFALL      0.07     0.15     8.62     0  00:53        0.15
  YS02005567           OUTFALL      0.09     0.19     8.73     0  00:53        0.19
  YS02005570           OUTFALL      0.11     0.22     8.94     0  00:53        0.22
  YS02005574           OUTFALL      0.12     0.28     9.12     0  00:53        0.28
  YS02005578           OUTFALL      0.11     0.24     9.02     0  00:53        0.24
  WS02005134           OUTFALL      0.00     0.00     8.74     0  00:00        0.00
  YS02005581           OUTFALL      0.13     0.30     9.10     0  00:50        0.30
  YS02005584           OUTFALL      0.15     0.30     9.26     0  00:48        0.30
  YS02005593           OUTFALL      0.24     0.28     9.00     0  00:45        0.28
  YS02005596           OUTFALL      0.16     0.30     8.84     0  00:44        0.30
  YS02005374           OUTFALL      0.14     0.30     8.54     0  00:46        0.30
  YS02005375           OUTFALL      0.14     0.30     8.69     0  00:46        0.30
  YS02005607           OUTFALL      0.13     0.30     7.53     0  00:47        0.30
  YS02005610           OUTFALL      0.09     0.25     8.87     0  00:52        0.25
  YS02005613           OUTFALL      0.15     0.30     8.58     0  00:49        0.30
  HS02003172           OUTFALL      0.18     0.47     5.92     0  00:52        0.47
  YS6395               OUTFALL      0.11     0.27     6.69     0  00:52        0.27
  YS6405               OUTFALL      0.17     0.40     3.85     0  00:52        0.40
  WSC                  OUTFALL      0.61     0.80     5.00     0  00:39        0.80
  JiankangQianchi      STORAGE      2.97     4.21     5.01     0  01:12        4.21
  CaochengTiaoxuchi    STORAGE      0.92     1.30     6.80     0  01:05        1.30
  XierchiQianchi       STORAGE      7.03     7.47     5.47     0  02:02        7.47
  
  
  *******************
  Node Inflow Summary
  *******************
  
  -------------------------------------------------------------------------------------------------
                                  Maximum  Maximum                  Lateral       Total        Flow
                                  Lateral    Total  Time of Max      Inflow      Inflow     Balance
                                   Inflow   Inflow   Occurrence      Volume      Volume       Error
  Node                 Type           LPS      LPS  days hr:min    10^6 ltr    10^6 ltr     Percent
  -------------------------------------------------------------------------------------------------
  WS02001211           JUNCTION      7.35   218.83     0  01:23       0.054        1.19       4.089
  WS02001212           JUNCTION      0.00   232.65     0  01:22           0        1.14       2.263
  WS02001213           JUNCTION      0.00   244.42     0  01:22           0        1.12       3.198
  WS02003069           JUNCTION      0.32  2519.78     0  00:52     0.00235        10.3       0.656
  WS02003072           JUNCTION      0.00  2519.60     0  00:52           0        10.3       0.571
  WS02003073           JUNCTION      1.82  3088.14     0  00:52      0.0134        13.7       0.278
  WS02003076           JUNCTION      0.00  3088.15     0  00:52           0        13.6       0.300
  WS02003060           JUNCTION     16.53  2519.55     0  00:52       0.122        10.4       0.532
  WS02003066           JUNCTION      0.00  2313.77     0  00:52           0        9.26       0.106
  WS02003059           JUNCTION      0.00   250.36     0  01:22           0        1.11       5.108
  WS02003115           JUNCTION      0.00   477.08     0  01:01           0        1.03       0.492
  WS02003116           JUNCTION      0.00   260.16     0  00:25           0        1.09       0.753
  WS02003118           JUNCTION      0.12   224.23     0  00:33    3.51e-06        1.08       1.388
  WS02003215           JUNCTION      0.19  1987.99     0  00:52    2.23e-05        2.65       1.020
  WS02003110           JUNCTION      0.18   441.49     0  00:52     0.00132       0.572       1.306
  WS02003111           JUNCTION      1.51   919.77     0  00:52      0.0107        1.52       0.470
  WS02005155           JUNCTION      0.38   441.20     0  00:52      0.0028       0.571       1.739
  WS02005154           JUNCTION    440.83   440.83     0  00:52       0.568       0.569       1.036
  WS02005193           JUNCTION      0.00   171.51     0  00:28           0      0.0155     131.583
  WS02005196           JUNCTION      0.00   115.69     0  00:28           0     0.00583     555.256
  WS02003067           JUNCTION      0.00  1870.38     0  00:51           0        7.31       0.198
  WS02004401           JUNCTION      0.00  1109.42     0  01:32           0        5.83       0.541
  WS02004402           JUNCTION      0.00  1109.43     0  01:28           0        5.81       0.481
  WS02004403           JUNCTION      0.00  1109.83     0  01:32           0        5.79       0.416
  WS02004404           JUNCTION      0.16  1110.17     0  01:32     0.00119        5.77       0.284
  WS02004406           JUNCTION      0.00  1110.06     0  01:32           0        5.75       0.714
  WS02004409           JUNCTION      0.00  1823.51     0  00:50           0        8.09       0.429
  WS02004410           JUNCTION      0.00  1870.50     0  00:51           0        8.13       0.436
  WS02004411           JUNCTION      0.00  1870.18     0  00:51           0        7.42       0.461
  WS02004412           JUNCTION      0.00  1870.21     0  00:51           0        7.39       0.460
  WS02004413           JUNCTION      0.00  1870.28     0  00:51           0        7.36       0.593
  WS02004405           JUNCTION      0.18  1110.38     0  01:32    0.000436        5.76       0.421
  WS02006109           JUNCTION      1.93  1308.01     0  00:00     0.00967        6.61       0.341
  WS02006110           JUNCTION      0.31  1108.93     0  01:32    0.000204        5.96      -0.326
  WS02006111           JUNCTION      0.04  1176.04     0  00:00    6.62e-06        5.95      -0.298
  WS02006112           JUNCTION      0.48  2307.30     0  00:00    2.72e-05        5.97       0.276
  WS02006113           JUNCTION      0.00  1108.92     0  01:33           0        5.94      -0.357
  WS02006115           JUNCTION      0.00  1366.62     0  00:00           0        5.88       0.560
  WS02006116           JUNCTION      0.34  1109.44     0  01:32    0.000408        5.85       0.463
  WS02006230           JUNCTION     10.42  1026.88     0  00:49      0.0756        3.34       0.495
  WS02006231           JUNCTION      0.53   453.33     0  01:11     0.00137        1.97       0.825
  WS02006232           JUNCTION      0.23   453.59     0  01:10    0.000119        1.99       0.908
  WS02006234           JUNCTION      0.10   453.40     0  01:11       3e-06           2       0.613
  WS02006235           JUNCTION      0.27   415.13     0  00:59    0.000496        2.08       0.526
  WS02006238           JUNCTION      0.00   415.33     0  01:38           0        2.07       0.352
  WS02006240           JUNCTION      0.00   414.93     0  00:59           0         2.1       0.788
  WS02006242           JUNCTION      0.32   415.01     0  00:59    0.000146        2.12       0.930
  WS02006243           JUNCTION      0.66   278.26     0  00:25     0.00138        1.59       1.025
  WS02006245           JUNCTION      0.00   286.70     0  00:26           0        1.61       0.833
  WS02006247           JUNCTION      0.00   296.36     0  00:26           0        1.62       0.742
  WS02006248           JUNCTION      0.00   344.32     0  00:37           0        1.96       0.559
  WS02006249           JUNCTION      0.00  1382.11     0  00:52           0         5.6       0.302
  WS02006239           JUNCTION      0.00   415.09     0  00:59           0        2.08       0.611
  WS02006251           JUNCTION      0.08  1720.83     0  00:52    0.000566        5.84       0.310
  WS02006252           JUNCTION      0.00   735.58     0  00:52           0        2.36      -0.009
  WS02006253           JUNCTION     59.55  1720.77     0  00:52      0.0759        4.29       0.469
  WS02006256           JUNCTION      0.00   300.00     0  00:33           0        1.61       0.063
  WS02004138           JUNCTION      0.00   190.00     0  00:29           0        1.17       0.255
  WS02004139           JUNCTION      0.32   190.32     0  00:33     0.00236        1.17       3.388
  WS02004407           JUNCTION      0.06  1823.92     0  00:50    6.67e-05        8.15       0.326
  WS02006228           JUNCTION      1.20  1288.59     0  00:49    0.000912        6.59       0.235
  WS02006229           JUNCTION      0.93  2305.60     0  00:49    0.000762        9.73       0.267
  WS02006280           JUNCTION      0.24  2305.04     0  00:49    0.000349        9.57       0.027
  WS02006284           JUNCTION      0.17  2305.07     0  00:49    0.000741        9.59       0.153
  WS02006287           JUNCTION      0.20  2306.18     0  00:49    8.47e-05         9.6       0.102
  WS02003091           JUNCTION      0.45  1200.35     0  00:00    0.000956        3.51      -1.122
  WS02003203           JUNCTION      0.34  2264.56     0  00:00    0.000142        5.45       0.187
  WS6145               JUNCTION      0.23   232.61     0  00:50    0.000342      0.0899       0.379
  WS6147               JUNCTION      0.00   233.42     0  00:50           0      0.0789       0.213
  WS6150               JUNCTION      0.09   234.12     0  00:50    0.000381       0.068       0.510
  WS6152               JUNCTION      0.58   240.37     0  00:50     0.00424      0.0571       0.725
  WS6155               JUNCTION      0.01   238.40     0  00:50    4.03e-05      0.0422       0.372
  WS6156               JUNCTION      0.71   235.94     0  00:50     0.00383       0.031       0.442
  WS6136               JUNCTION      0.17   731.57     0  00:49    4.94e-05        1.41       0.048
  WS6140               JUNCTION      0.17   234.09     0  00:50    0.000114        0.11       0.118
  WS6142               JUNCTION      0.17   232.60     0  00:50    0.000142         0.1       0.235
  WS6325               JUNCTION      0.20   141.05     0  00:49    0.000177      0.0883       1.711
  WS6327               JUNCTION      0.14   141.05     0  00:49    0.000474      0.0787       0.142
  WS6329               JUNCTION      0.54   141.11     0  00:49     0.00191       0.068       0.201
  WS6332               JUNCTION      0.37   140.98     0  00:49     0.00077      0.0553       0.203
  WS6158               JUNCTION      1.60   249.56     0  00:50      0.0118      0.0155      -1.214
  WS6335               JUNCTION      0.69   141.23     0  00:49     0.00364      0.0433       0.403
  WS6338               JUNCTION      0.39   141.23     0  00:49     0.00111      0.0283       0.232
  WS6340               JUNCTION      0.26   139.51     0  00:49    0.000217      0.0156       0.204
  WS6342               JUNCTION      0.63   150.13     0  00:49     0.00316      0.0063      -0.703
  WS6135               JUNCTION      0.08   731.54     0  00:49     1.9e-05        1.51       0.440
  WS6396               JUNCTION      0.00   547.40     0  00:58           0        1.41       0.179
  WS6399               JUNCTION      0.00   547.44     0  00:58           0        1.41       0.067
  WS02003082           JUNCTION      0.46   590.29     0  00:42     0.00141        3.47       0.524
  WS02003077           JUNCTION      0.60   590.87     0  00:42     0.00441        3.43       0.214
  WS02003080           JUNCTION      0.00   590.31     0  00:41           0        3.44       0.441
  WS02003083           JUNCTION      0.00   590.12     0  00:42           0        3.48       0.256
  WS02003084           JUNCTION      0.04   590.23     0  00:41    0.000324        3.49       0.271
  WS02003085           JUNCTION      0.00   590.18     0  00:42           0        3.49       0.177
  WS02003086           JUNCTION      0.49   655.05     0  00:01     0.00361        3.51       0.424
  WS02003087           JUNCTION      0.00  1086.59     0  00:00           0        3.51       0.301
  WS02003088           JUNCTION      0.55  2146.84     0  00:00     0.00152        3.55       0.393
  WS02003089           JUNCTION      0.23  1590.77     0  00:00    0.000309        3.54      -0.263
  WS02003090           JUNCTION      0.40  1113.92     0  00:00    0.000478        3.51      -0.680
  WS02003081           JUNCTION      0.00   590.28     0  00:42           0        3.45       0.410
  WS02003122           JUNCTION      0.00   224.39     0  00:33           0        1.06       1.401
  WS02003187           JUNCTION    560.25   737.25     0  00:52       0.771        1.79       0.722
  WS02003188           JUNCTION      0.48   403.48     0  01:01     0.00105         1.6       0.778
  WS02003190           JUNCTION      0.00   608.63     0  01:02           0        2.46       0.547
  WS02003193           JUNCTION    973.29  1236.94     0  00:52        1.33        2.37       0.741
  WS02003195           JUNCTION      0.31   306.09     0  00:01    0.000671        1.11       1.361
[...]
  WS02003083WS02003082        1.69      1.69      1.72      1.80         0.01
  WS02003082WS02003081        1.68      1.69      1.68      1.79         1.68
  WS02003081WS02003080        1.68      1.68      1.68      1.69         1.68
  WS02003080WS02003077        0.58      0.58      1.68      1.69         0.01
  WS02003073WS02003076        0.67      0.67      1.45      0.22         0.01
  HS02004901HS02004770        0.72      0.72      0.72      0.06         0.01
  HS02004876HS02004881        0.72      0.74      0.72      1.62         0.72
  HS02004870HS02004876        0.66      0.66      0.74      0.01         0.01
  HS02004049HS02004052        0.14      0.14      0.16      0.01         0.01
  HS02004048HS02004049        0.24      0.34      0.24      0.40         0.24
  HS02004046HS02004048        0.16      0.16      0.34      0.01         0.01
  HS02004043HS02004046        0.13      0.13      0.18      0.04         0.04
  HS02004041HS02004043        0.01      0.01      0.13      0.01         0.01
  HS02004028HS02004027        0.01      0.15      0.01      0.17         0.01
  HS02003143HS02003065        0.59      0.59      0.80      0.01         0.01
  HS02004842HS02004848        0.58      0.58      0.79      0.01         0.01
  HS02004837HS02004842        0.61      0.61      0.79      0.01         0.01
  HS02004830HS02004837        0.61      0.61      0.67      0.01         0.01
  HS02004824HS02004830        0.67      0.67      0.71      0.01         0.01
  HS02004817HS02004824        0.71      0.71      1.56      0.01         0.01
  HS02004770HS02004777        0.72      0.72      0.73      0.01         0.01
  HS02004799HS02004480        0.88      0.88      0.97      0.98         0.01
  HS02004792HS02004799        0.82      0.82      0.97      0.01         0.01
  HS02004788HS02004792        0.66      0.66      0.82      0.01         0.01
  HS02004785HS02004788        0.66      0.67      0.66      1.49         0.53
  HS02004777HS02004785        0.67      0.67      0.73      0.01         0.01
  HS02004480HS02004478        0.82      0.88      0.82      1.70         0.82
  HS02004479HS02004480        0.89      0.89      0.93      0.01         0.01
  HS02003013HS02003010        0.33      0.33      0.37      0.21         0.21
  HS02003010HS02003007        0.31      0.31      0.32      0.36         0.31
  HS02003007HS02003004        0.32      0.32      0.40      0.18         0.17
  HS02003004HS02003001        0.01      0.40      0.01      0.98         0.01
  HS02003065HS02003056        0.78      0.78      0.93      0.01         0.01
  HS02003042HS02003053        0.27      0.27      0.73      0.01         0.01
  HS02003028HS02003021        0.20      0.20      0.27      0.01         0.01
  HS02003021HS02003018        0.29      0.29      0.31      0.09         0.09
  HS02003018HS02003017        0.31      0.31      0.32      0.06         0.06
  HS02003017HS02003013        0.32      0.32      0.33      0.26         0.24
  HS02004862HS02004870        0.63      0.63      0.66      0.29         0.27
  HS02004848HS02004852        0.58      0.58      0.61      0.03         0.01
  HS02004856HS02004862        0.58      0.58      0.63      0.01         0.01
  HS02004852HS02004856        0.61      0.61      0.63      0.02         0.01
  HS02004024HS02004022        0.01      0.01      0.20      0.01         0.01
  HS02004022HS02004021        0.20      0.20      0.30      0.01         0.01
  HS02004021HS02004019        0.30      0.30      0.44      0.23         0.23
  HS02004019HS02003162        0.01      0.44      0.01      0.47         0.01
  HS02004052HS02004053        0.15      0.16      0.15      0.18         0.15
  HS02003122HS02003125        1.49      1.49      1.49      0.14         0.17
  HS02003119HS02003122        1.47      1.47      1.49      0.01         0.01
  HS02003116HS02003119        1.11      1.11      1.47      0.01         0.01
  HS02003111HS02003116        0.01      0.01      1.18      0.01         0.01
  HS02004018HS02004019        0.30      0.30      0.44      0.01         0.01
  HS02003056HS02003136        0.80      0.80      1.51      0.01         0.01
  HS02004017HS02004018        0.28      0.28      0.30      0.01         0.01
  HS02004013HS02004017        0.10      0.10      0.28      0.11         0.10
  HS02004010HS02004013        0.01      0.01      0.10      0.01         0.01
  HS02004802HS02004478        0.83      0.83      0.90      0.21         0.01
  HS02004478WS02006287        0.69      0.69      0.88      0.01         0.01
  HS02003148HS02003145        0.01      0.01      0.13      0.01         0.01
  HS02003145HS02003143        0.13      0.13      0.56      0.12         0.10
  HS02003136WS02003203        1.52      1.52      1.64      0.01         0.01
  HS02003084HS02003088        0.01      0.01      0.03      0.01         0.01
  HS02003108HS02003111        0.14      0.14      0.35      0.01         0.01
  HS02003100HS02003108        0.07      0.07      0.14      0.01         0.01
  HS02003088HS02003100        0.05      0.05      0.07      0.01         0.01
  HS02004817HS02004807        0.87      0.87      1.56      0.01         0.01
  HS02004807HS02004802        0.87      0.87      0.89      0.36         0.36
  HS02003053HS02003056        0.73      0.73      0.93      0.01         0.01
  HS02003039HS02003042        0.33      0.34      0.37      0.21         0.02
  HS02003036HS02003039        0.16      0.16      0.20      0.01         0.01
  YS02001759YS02001757        0.08      0.09      0.08      0.16         0.08
  YS02001762YS02001759        0.09      0.10      0.09      0.14         0.09
  YS02001765YS02001762        0.09      0.10      0.10      0.07         0.05
  YS02001770YS02001767        0.10      0.11      0.10      0.59         0.10
  YS02001774YS02001770        0.11      0.11      0.13      0.01         0.01
  YS02001779YS02001774        0.07      0.07      0.13      0.01         0.01
  YS02001767YS02001765        0.10      0.10      0.10      0.17         0.09
  YS02006561YS02001783        0.40      0.40      0.59      0.01         0.01
  YS02001783YS02001784        0.56      0.59      0.56      0.74         0.56
  YS02001784YS02001785        0.46      0.56      0.46      1.03         0.46
  YS02001790YS02001791        0.01      0.01      0.01      0.55         0.01
  YS02001910YS02001907        0.62      0.62      0.82      0.01         0.01
  YS02001786YS02001788        0.01      0.46      0.01      0.87         0.01
  YS02001915YS02001910        0.53      0.53      0.62      0.01         0.01
  YS02001918YS02001915        0.45      0.45      0.53      0.01         0.01
  YS02001923YS02001920        0.38      0.38      0.46      0.01         0.01
  YS02001926YS02001923        0.15      0.15      0.17      0.01         0.01
  YS02001929YS02001926        0.03      0.03      0.17      0.01         0.01
  YS02001932YS02001929        0.01      0.01      0.03      0.01         0.01
  YS02001935YS02001932        0.01      0.01      0.01      0.01         0.01
  YS02001920YS02001918        0.45      0.45      0.46      0.01         0.01
  YS02003290YS02003287        1.23      1.23      1.53      0.01         0.01
  YS02003294YS02003290        1.24      1.24      1.58      0.01         0.01
  YS02003297YS02003294        1.52      1.52      1.54      0.05         0.19
  YS02003275YS02003272        1.01      1.13      1.01      1.45         1.01
  YS02003300YS02003297        1.30      1.30      1.46      0.01         0.01
  YS02003303YS02003300        1.20      1.20      1.37      0.01         0.01
  YS02005550YS02005551        0.01      0.07      0.01      0.12         0.01
  YS02005568YS02005569        0.01      0.16      0.01      0.29         0.01
  YS02005582YS02005583        0.38      0.63      0.38      0.86         0.38
  YS02003272YS02003269        0.01      1.08      0.01      1.45         0.01
  YS02003278YS02003275        1.18      1.59      1.18      1.74         1.18
  YS02003281YS02003278        1.40      1.40      1.56      1.17         1.18
  YS02003284YS02003281        1.40      1.40      1.56      0.72         0.27
  YS02003287YS02003284        1.49      1.49      1.62      0.01         0.02
  YS02003306YS02003303        1.15      1.15      1.29      0.32         0.32
  YS02003309YS02003306        1.04      1.04      1.15      0.01         0.01
  YS02005600YS02005375        0.25      0.25      0.27      0.27         0.25
  YS02005384YS02005593        0.01      1.41      0.01      1.47         0.01
  YS02005595YS02005596        0.37      0.38      0.37      0.41         0.37
  YS02005609YS02005610        0.01      0.01      0.01      0.01         0.01
  YS02005612YS02005613        0.17      0.17      1.17      0.39         0.01
  YS02005549YS02005547        0.01      0.01      0.01      0.02         0.01
  YS02005553YS02005554        0.01      0.11      0.01      0.26         0.01
  YS02005556YS02005557        0.01      0.01      0.01      0.30         0.01
  YS02005562YS02005563        0.01      0.01      0.01      0.24         0.01
  YS02005571YS02005572        0.01      0.29      0.01      0.45         0.01
  YS02005572YS02005574        0.01      0.01      0.01      0.09         0.01
  YS02005576YS02005577        0.01      0.09      0.01      0.17         0.01
  YS02005579YS02005580        0.22      0.39      0.22      0.57         0.22
  YS02005580YS02005581        0.19      0.22      0.19      0.24         0.19
  YS02005583YS02005584        0.38      0.38      0.39      0.39         0.38
  YS02006553YS02006556        0.72      0.72      0.84      0.01         0.01
  YS02006556YS02006558        0.77      0.77      0.86      0.01         0.01
  YSB6556YSB1171              1.01      1.01      1.63      0.01         0.01
  YSB1202YSB1205              1.37      1.37      1.38      0.01         0.01
  YSB1205YSB1209              1.38      1.38      1.38      0.86         0.81
  YSB1209YSB1212              1.36      1.38      1.36      1.49         1.36
  YSB1212YSB1215              1.36      1.36      1.36      0.65         0.64
  YSB1215YSB1218              1.36      1.36      1.36      0.70         0.69
  YSB1218YSB1221              1.35      1.35      1.36      1.28         1.28
  YSB1221YSB1224              1.36      1.36      1.37      1.35         1.36
  YSB1224YSB1105              1.05      1.41      1.05      1.50         1.05
  YSB1189YSB1186              0.60      0.60      0.71      0.15         0.15
  YS02001907YS02006553        1.05      1.05      1.13      0.01         0.01
  YS02006562YS02006558        0.59      0.59      0.86      0.01         0.01
  YS02006558YS02006561        0.49      0.71      0.49      0.98         0.49
  YS6184YS6187                0.14      0.14      0.16      0.08         0.09
  YS6360YS6363                0.11      0.16      0.11      0.72         0.11
  YS6354YS6360                0.21      0.21      0.21      0.22         0.20
  YS6351YS6354                0.21      0.23      0.21      0.43         0.21
  YS6350YS6351                0.23      0.26      0.23      0.75         0.23
  YS6348YS6350                0.24      0.24      0.26      0.23         0.22
  YS6344YS6348                0.25      0.25      0.31      0.01         0.01
  YS6363YS6132                0.11      0.11      0.26      0.01         0.01
  YS6137YS6132                0.18      0.18      0.37      0.01         0.01
  YS6189YS6137                0.18      0.18      0.21      1.46         0.01
  YS6187YS6189                0.14      0.14      0.16      0.30         0.01
  YS6179YS6184                0.13      0.13      0.14      0.01         0.01
  YS6176YS6179                0.08      0.08      0.13      0.01         0.01
  YS6171YS6176                0.10      0.10      0.13      0.01         0.01
  YS6168YS6171                0.10      0.10      0.10      0.07         0.07
  YS6164YS6168                0.06      0.06      0.10      0.01         0.01
  YS6162YS6164                0.09      0.09      0.10      0.01         0.01
  YS6132YS6404                0.01      0.16      0.01      0.30         0.01
  YSB1106YSB1105              0.01      0.16      0.01      0.20         0.01
  YSB1109YSB1106              0.16      0.22      0.16      0.35         0.16
  YSB1112YSB1109              0.22      0.22      0.22      0.25         0.22
  YSB1115YSB1112              0.20      0.20      0.22      0.13         0.12
  YSB1118YSB1115              0.23      0.23      0.23      0.26         0.23
  YSB1121YSB1118              0.23      0.26      0.23      0.36         0.23
  YSB1124YSB1121              0.23      0.23      0.26      0.01         0.01
  YSB1105YSB1103              0.01      0.01      0.14      0.14         0.01
  YS02001751YS02001754        0.01      0.01      0.01      0.01         0.01
  YS02001754YS02001757        0.01      0.01      0.08      0.01         0.01
  YS02001882YS02001884        0.54      0.54      0.55      0.01         0.01
  YS02001884YS02001887        0.57      0.57      0.58      0.01         0.01
  YS02001890YS02001895        0.53      0.53      0.62      0.01         0.01
  YS02001895YS02001898        0.52      0.52      0.53      0.01         0.01
  YS02001898YS02001901        0.53      0.53      0.57      0.01         0.01
  YS02001901YS02001904        0.56      0.56      0.57      0.01         0.01
  YS02001904YS02001907        0.56      0.56      0.84      0.01         0.01
  YS02001887YS02001890        0.59      0.59      0.61      0.16         0.01
  YS02004309YS02004307        0.13      0.93      0.13      0.91         0.13
  YS02004319YS02004316        0.36      0.36      0.37      0.01         0.01
  YS02005376YS02005378        1.66      1.66      1.84      0.01         0.01
  YS02005378YS02005381        1.82      1.82      1.84      0.37         0.01
  YS02005381YS02005384        1.41      1.41      1.82      1.83         0.01
  YS02005598YS02005374        0.27      0.27      0.29      0.29         0.27
  YS02005602YS02005603        0.23      0.56      0.23      0.71         0.23
  YS02005603YS02005607        0.23      0.23      0.24      0.24         0.23
  YS02005618YS02005619        0.01      0.01      0.01      0.03         0.01
  YS02005621YS02005622        0.01      0.02      0.01      0.08         0.01
  YS02005624YS02005625        0.01      0.01      0.27      0.05         0.01
  YS02005630YS02005631        0.01      0.06      0.01      0.11         0.01
  YS02005633YS02005634        0.01      0.06      0.01      0.08         0.01
  YS02005636YS02005637        0.01      0.10      0.01      0.14         0.01
  YS02005639YS02005640        0.01      0.07      0.01      0.10         0.01
  YS02005627YS02005628        0.01      0.06      0.01      0.29         0.01
  YS02005644YS02005645        0.01      0.13      0.01      0.16         0.01
  YS02005650YS02005651        0.01      0.16      0.01      0.26         0.01
  YS02005653YS02005654        0.14      0.14      0.15      0.14         0.14
  YS02005654YS02005655        0.01      0.15      0.01      0.24         0.01
  YS02005658YS02005659        0.01      0.09      0.01      0.13         0.01
  YS02005661YS02005662        0.01      0.14      0.01      0.26         0.01
  YS02005664YS02005665        0.01      0.15      0.01      0.54         0.01
  YS02005667YS02005668        0.01      0.01      0.51      0.13         0.01
  YS02005647YS02005648        0.01      0.24      0.01      0.37         0.01
  YS02004312YS02004309        0.61      0.61      0.93      0.01         0.01
  YS02004314YS02004312        0.40      0.40      0.61      0.01         0.01
  YS02004316YS02004314        0.37      0.37      0.40      0.31         0.31
  YS02004320YS02004319        0.01      0.01      0.28      0.01         0.01
  YS6404YS6401                0.01      0.01      0.01      0.71         0.01
  YSB1132YSB1135              0.60      0.60      0.66      0.01         0.01
  YSB1135YSB1138              0.66      0.66      0.69      0.01         0.01
  YSB1138YSB1141              0.69      0.69      0.78      0.43         0.43
  YSB1141YSB1145              0.76      0.76      0.79      0.41         0.39
  YSB1148YSB1151              0.87      0.87      1.12      0.01         0.01
  YSB1151YSB1154              0.97      0.97      1.29      0.01         0.01
  YSB1154YSB6556              1.01      1.01      1.29      0.43         0.01
  YSB1128YSB1132              0.58      0.58      0.60      0.01         0.01
  YSB1145YSB1148              0.79      0.79      0.87      0.01         0.01
  YSB1198YSB1195              0.25      0.25      0.54      0.01         0.01
  YSB1195YSB1192              0.54      0.54      0.57      0.01         0.01
  YSB1192YSB1189              0.57      0.57      0.60      0.01         0.01
  YSB1186YSB1183              0.65      0.65      0.78      0.01         0.01
  YSB1183YSB1180              0.78      0.78      0.82      0.18         0.19
  YSB1180YSB1177              0.82      0.82      1.16      0.01         0.01
  YSB1177YSB1174              1.16      1.16      1.43      0.19         0.20
  YSB1174YSB1171              1.11      1.11      1.58      0.13         0.14
  YSB1171HS02004479           0.86      0.86      1.26      0.01         0.01
  YS02004307HS02004052        0.01      0.01      0.16      0.01         0.01
  HS02004881HS02006253        0.72      0.72      1.52      0.01         0.01
  WS0200404049WS6136          0.14      0.14      0.23      0.01         0.01
  HS02003125WS02003215        1.49      1.49      1.52      0.01         0.01
  YS02001793JiankangQianchi        0.01      0.01      2.03      0.01         0.01
  YS02001757CaochengTiaoxuchi        0.08      0.08      0.67      0.07         0.06
  WS02004041WS6409            1.07      1.07      1.17      1.16         1.07
  WSF200WS02003060            0.23      0.23      0.49      0.01         0.01
  HS02004053WS02004407        0.15      0.15      1.11      0.01         0.01
  HS02003036HS02003028        0.16      0.16      0.25      0.01         0.01
  
  
  ***************
  Pumping Summary
  ***************
  
  ---------------------------------------------------------------------------------------------------------
                                                  Min       Avg       Max     Total     Power    % Time Off
                        Percent   Number of      Flow      Flow      Flow    Volume     Usage    Pump Curve
  Pump                 Utilized   Start-Ups       LPS       LPS       LPS  10^6 ltr     Kw-hr    Low   High
  ---------------------------------------------------------------------------------------------------------
  CaochengSewagePump1     89.83           1      0.00    200.00    200.00     1.321     10.16    0.0    0.0
  CaochengSewagePump2     55.49           1      0.00    200.00    200.00     0.816      6.58    0.0    0.0
  CaochengRainPump1       51.87           1      0.00    683.00    683.00     2.605      3.60    0.0   43.4
  CaochengRainPump2        0.00           0      0.00      0.00      0.00     0.000      0.00    0.0    0.0
  JiankangSewagePump      72.96           1      0.00    300.00    300.00     1.609     24.40    0.0    0.0
  JiankangRainPump1       31.50           4      0.00   1000.00   1000.00     2.316     15.15    0.0    0.0
  JiankangRainPump2        0.00           0      0.00      0.00      0.00     0.000      0.00    0.0    0.0
  XierchiSewagePump1      91.82           1      0.00     95.00     95.00     0.641      3.96    0.0    0.0
  XierchiSewagePump2      76.32           1      0.00     95.00     95.00     0.533      3.12    0.0    0.0
  XierchiSewagePump3       0.00           0      0.00      0.00      0.00     0.000      0.00    0.0    0.0
  XierchiSewagePump4       0.00           0      0.00      0.00      0.00     0.000      0.00    0.0    0.0
  

  Analysis begun on:  Mon Oct 17 18:26:58 2022
  Analysis ended on:  Mon Oct 17 19:03:59 2022
  Total elapsed time: 00:37:01