
  EPA STORM WATER MANAGEMENT MODEL - VERSION 5.1 (Build 5.3.0.dev0)
  --------------------------------------------------------------

  WARNING 04: minimum elevation drop used for Conduit WS02004404WS02004405
  WARNING 03: negative offset ignored for Link YS02001904YS02001907
  
  *********************************************************
  NOTE: The summary statistics displayed in this report are
  based on results found at every computational time step,  
  not just on results from each reporting time step.
  *********************************************************
  
  ****************
  Analysis Options
  ****************
  Flow Units ............... LPS
  Process Models:
    Rainfall/Runoff ........ YES
    RDII ................... NO
    Snowmelt ............... NO
    Groundwater ............ NO
    Flow Routing ........... YES
    Ponding Allowed ........ NO
    Water Quality .......... NO
  Infiltration Method ...... HORTON
  Flow Routing Method ...... DYNWAVE
  Surcharge Method ......... EXTRAN
  Starting Date ............ 03/31/2017 00:00:00
  Ending Date .............. 03/31/2017 03:00:00
  Antecedent Dry Days ...... 8.0
  Report Time Step ......... 00:00:30
  Wet Time Step ............ 00:01:00
  Dry Time Step ............ 00:01:00
  Routing Time Step ........ 30.00 sec
  Variable Time Step ....... YES
  Maximum Trials ........... 8
  Number of Threads ........ 6
  Head Tolerance ........... 0.001500 m
  
  
  **************************        Volume         Depth
  Runoff Quantity Continuity     hectare-m            mm
  **************************     ---------       -------
  Initial LID Storage ......         0.094         0.800
  Total Precipitation ......        11.461        97.262
  Evaporation Loss .........         0.000         0.000
  Infiltration Loss ........         0.298         2.526
  Surface Runoff ...........         9.259        78.577
  Final Storage ............         2.011        17.064
  Continuity Error (%) .....        -0.107
  
  
  **************************        Volume        Volume
  Flow Routing Continuity        hectare-m      10^6 ltr
  **************************     ---------     ---------
  Dry Weather Inflow .......         0.171         1.707
  Wet Weather Inflow .......         9.232        92.319
  Groundwater Inflow .......         0.000         0.000
  RDII Inflow ..............         0.000         0.000
  External Inflow ..........         0.033         0.332
  External Outflow .........         4.905        49.051
  Flooding Loss ............         4.292        42.918
  Evaporation Loss .........         0.000         0.000
  Exfiltration Loss ........         0.000         0.000
  Initial Stored Volume ....         0.303         3.031
  Final Stored Volume ......         0.573         5.728
  Continuity Error (%) .....        -0.316
  
  
  *************************
  Highest Continuity Errors
  *************************
  Node WS02005193 (57.69%)
  Node YS02001884 (25.38%)
  Node YS02001774 (7.69%)
  Node HS02003116 (5.80%)
  Node YS02004320 (5.80%)
  
  
  ***************************
  Time-Step Critical Elements
  ***************************
  Link YS02005655YS02005657 (44.63%)
  Link WS02006252WS02006251 (21.37%)
  Link WS02004041WS6409 (16.07%)
  Link WS02003073WS02003076 (1.98%)
  Link WS02006280WS02006229 (1.87%)
  
  
  ********************************
  Highest Flow Instability Indexes
  ********************************
  Link WS02006238WS02006235 (70)
  Link WS02003215WS02003116 (68)
  Link WS02003122WS02003187 (67)
  Link WS02003203WS02003091 (64)
  Link WS02004404WS02004405 (63)
  
  
  *************************
  Routing Time Step Summary
  *************************
  Minimum Time Step           :     0.50 sec
  Average Time Step           :     0.95 sec
  Maximum Time Step           :    30.00 sec
  Percent in Steady State     :     0.00
  Average Iterations per Step :     6.39
  Percent Not Converging      :    40.74
  
  
  ***************************
  Subcatchment Runoff Summary
  ***************************
  
  ------------------------------------------------------------------------------------------------------------------------------
                            Total      Total      Total      Total     Imperv       Perv      Total       Total     Peak  Runoff
                           Precip      Runon       Evap      Infil     Runoff     Runoff     Runoff      Runoff   Runoff   Coeff
  Subcatchment                 mm         mm         mm         mm         mm         mm         mm    10^6 ltr      LPS
  ------------------------------------------------------------------------------------------------------------------------------
  sub0                      97.26       0.00       0.00       0.74      88.10       5.76      93.86        0.08    59.55   0.965
  sub1                      97.26       0.00       0.00       0.97      69.79       7.44      77.23        0.51   349.63   0.794
  sub2                      97.26       0.00       0.00       3.44      51.55      23.05      74.60        0.70   383.37   0.767
  sub3                      97.26       0.00       0.00       3.44      50.98      21.61      72.59        1.63   832.92   0.746
  sub4                      97.26       0.00       0.00       0.90      63.00       6.67      69.67        1.45   831.31   0.716
  sub5                      97.26       0.00       0.00       0.66      77.15       5.06      82.22        0.93   629.60   0.845
  sub6                      97.26       0.00       0.00       0.63      74.04       4.86      78.90        2.04  1316.07   0.811
  sub7                      97.26       0.00       0.00       0.78      70.44       6.04      76.48        0.26   192.34   0.786
  sub8                      97.26       0.00       0.00       0.73      65.98       5.66      71.63        0.46   335.05   0.736
  sub9                      97.26       0.00       0.00       0.75      67.66       5.80      73.46        0.35   255.98   0.755
  sub10                     97.26       0.00       0.00       0.71      73.02       5.52      78.54        0.87   601.33   0.807
  sub11                     97.26       0.00       0.00       0.69      70.83       5.35      76.18        0.89   648.54   0.783
  sub12                     97.26       0.00       0.00       1.22      73.59       9.48      83.07        0.73   559.31   0.854
  sub13                     97.26       0.00       0.00       3.58      61.78      25.76      87.53        1.04   653.17   0.900
  sub14                     97.26       0.00       0.00       0.77      69.20       5.93      75.13        0.72   513.43   0.772
  sub15                     97.26       0.00       0.00       2.87      59.49      20.84      80.33        1.38   880.43   0.826
  sub16                     97.26       0.00       0.00       3.21      58.36      23.88      82.24        0.86   599.13   0.846
  sub17                     97.26       0.00       0.00       3.22      61.34      23.92      85.26        0.73   500.39   0.877
  sub18                     97.26       0.00       0.00       0.76      69.07       5.92      74.99        0.60   455.02   0.771
  sub19                     97.26       0.00       0.00       3.18      63.23      23.51      86.74        0.28   186.11   0.892
  sub20                     97.26       0.00       0.00       0.50      45.42       3.89      49.31        0.34   268.58   0.507
  sub21                     97.26       0.00       0.00       1.09      71.95       8.46      80.41        0.41   310.78   0.827
  sub22                     97.26       0.00       0.00       4.43      52.31      31.02      83.33        5.26  3120.06   0.857
  sub23                     97.26       0.00       0.00       3.40      51.79      24.76      76.55        3.65  2360.81   0.787
  sub24                     97.26       0.00       0.00       1.28      70.69       9.89      80.59        2.89  2172.75   0.829
  sub25                     97.26       0.00       0.00       0.74      88.24       5.77      94.01        1.22   971.38   0.967
  sub26                     97.26       0.00       0.00       2.30      65.93      17.82      83.74        1.19   974.64   0.861
  sub27                     97.26       0.00       0.00       0.78      69.91       5.99      75.90        1.10   779.24   0.780
  sub28                     97.26       0.00       0.00       0.68      69.33       5.24      74.57        1.17   828.37   0.767
  sub29                     97.26       0.00       0.00       0.70      71.06       5.38      76.43        1.23   787.65   0.786
  sub30                     97.26       0.00       0.00       0.70      72.00       5.43      77.43        1.74  1357.35   0.796
  sub31                     97.26       0.00       0.00       1.67      73.42      12.91      86.33        1.83  1426.01   0.888
  sub32                     97.26       0.00       0.00       0.71      73.16       5.52      78.68        1.57  1169.97   0.809
  sub33                     97.26       0.00       0.00       1.17      70.64       9.10      79.74        1.46  1135.26   0.820
  sub34                     97.26       0.00       0.00       4.95      44.71      36.75      81.46        1.82  1235.98   0.838
  sub35                     97.26       0.00       0.00       0.71      74.20       5.59      79.79        0.28   246.93   0.820
  sub36                     97.26       0.00       0.00       2.05      65.58      15.83      81.42        0.71   565.56   0.837
  sub37                     97.26       0.00       0.00       3.75      53.04      28.62      81.66        0.62   477.82   0.840
  sub38                     97.26       0.00       0.00       3.40      57.17      26.16      83.34        1.58  1274.78   0.857
  sub39                     97.26       0.00       0.00       0.69      71.44       5.39      76.83        0.82   687.37   0.790
  sub40                     97.26       0.00       0.00       0.68      70.30       5.30      75.60        0.88   746.46   0.777
  sub41                     97.26       0.00       0.00       1.40      66.50      10.90      77.41        1.49  1197.03   0.796
  sub42                     97.26       0.00       0.00       0.75      68.50       5.87      74.37        0.75   625.44   0.765
  sub43                     97.26       0.00       0.00       4.00      58.59      29.67      88.27        0.72   496.13   0.908
  sub44                     97.26       0.00       0.00       0.63      74.74       4.90      79.64        0.90   636.52   0.819
  sub45                     97.26       0.00       0.00       1.58      69.00      12.06      81.06        1.49  1062.40   0.833
  sub46                     97.26       0.00       0.00       6.25      33.17      45.27      78.44        0.55   330.49   0.807
  sub47                     97.26       0.00       0.00       0.73      75.53       5.70      81.23        0.62   463.74   0.835
  sub48                     97.26       0.00       0.00       0.75      68.23       5.85      74.08        0.57   424.42   0.762
  sub49                     97.26       0.00       0.00       0.71      73.08       5.52      78.59        0.72   517.48   0.808
  sub50                     97.26       0.00       0.00       0.69      70.39       5.32      75.70        0.53   386.92   0.778
  sub51                     97.26       0.00       0.00       0.66      68.49       5.17      73.66        0.35   266.38   0.757
  sub52                     97.26       0.00       0.00       0.65      76.83       5.03      81.86        0.89   630.65   0.842
  sub53                     97.26       0.00       0.00       0.71      72.93       5.51      78.44        0.79   592.39   0.806
  sub54                     97.26       0.00       0.00       0.63      73.60       4.83      78.43        0.47   317.44   0.806
  sub55                     97.26       0.00       0.00       0.67      68.85       5.20      74.05        0.59   417.07   0.761
  sub56                     97.26       0.00       0.00       1.78      66.72      13.05      79.77        1.13   699.99   0.820
  sub57                     97.26       0.00       0.00       3.24      63.84      23.08      86.92        0.56   343.25   0.894
  sub58                     97.26       0.00       0.00       7.68      25.53      48.08      73.61        2.72  1184.68   0.757
  sub59                     97.26       0.00       0.00       8.10      21.68      44.82      66.49        1.52   580.49   0.684
  sub60                     97.26       0.00       0.00       1.02      67.06       7.88      74.95        0.98   728.96   0.771
  sub61                     97.26       0.00       0.00       1.54      67.33      11.79      79.11        1.45  1067.65   0.813
  sub62                     97.26       0.00       0.00       0.68      69.92       5.28      75.21        2.06  1423.67   0.773
  sub67                     97.26       0.00       0.00       0.74      75.79       5.73      81.52        1.52  1052.42   0.838
  sub68                     97.26       0.00       0.00       1.25      68.29       9.53      77.83        2.14  1514.97   0.800
  sub71                     97.26       0.00       0.00       0.65      66.05       4.99      71.04        1.86  1216.68   0.730
  sub72                     97.26       0.00       0.00       0.63      72.68       4.79      77.47        1.07   638.41   0.796
  sub73                     97.26       0.00       0.00       2.07      70.43      16.03      86.47        0.08    67.22   0.889
  sub74                     97.26       0.00       0.00       3.03      58.16      23.16      81.32        0.13   100.47   0.836
  sub75                     97.26       0.00       0.00       2.81      59.34      21.62      80.96        0.18   140.85   0.832
  sub76                     97.26       0.00       0.00       1.69      69.49      13.09      82.58        0.20   158.80   0.849
  sub77                     97.26       0.00       0.00       1.56      68.94      12.14      81.08        0.13   104.16   0.834
  sub78                     97.26       0.00       0.00       1.24      74.44       9.59      84.03        0.23   177.39   0.864
  sub79                     97.26       0.00       0.00       2.45      69.49      18.57      88.07        0.23   167.07   0.905
  sub80                     97.26       0.00       0.00       3.21      58.79      24.40      83.19        0.24   183.56   0.855
  sub81                     97.26       0.00       0.00       3.71      56.90      27.82      84.72        0.26   184.77   0.871
  sub82                     97.26       0.00       0.00       3.63      55.77      27.41      83.19        0.25   183.49   0.855
  sub83                     97.26       0.00       0.00       3.69      54.34      27.96      82.30        0.28   206.80   0.846
  sub84                     97.26       0.00       0.00       3.27      54.66      24.51      79.17        0.43   305.24   0.814
  sub85                     97.26       0.00       0.00       2.30      65.25      17.44      82.69        0.37   269.81   0.850
  sub86                     97.26       0.00       0.00       2.51      64.11      19.03      83.14        0.40   296.10   0.855
  sub87                     97.26       0.00       0.00       3.68      61.56      27.73      89.28        0.27   194.81   0.918
  sub88                     97.26       0.00       0.00       3.53      61.73      26.69      88.42        0.27   199.24   0.909
  sub89                     97.26       0.00       0.00       3.06      61.63      23.48      85.11        0.23   175.71   0.875
  sub90                     97.26       0.00       0.00       2.65      64.76      20.35      85.11        0.21   161.93   0.875
  sub91                     97.26       0.00       0.00       2.68      65.66      20.74      86.40        0.16   127.58   0.888
  sub92                     97.26       0.00       0.00       3.26      65.80      25.25      91.05        0.14   114.06   0.936
  sub93                     97.26       0.00       0.00       3.26      65.83      25.27      91.10        0.16   138.99   0.937
  sub94                     97.26       0.00       0.00       3.26      65.67      25.10      90.77        0.20   157.20   0.933
  sub95                     97.26       0.00       0.00       3.05      67.62      23.57      91.19        0.14   112.57   0.938
  sub96                     97.26       0.00       0.00       2.31      74.48      18.07      92.55        0.17   149.76   0.952
  sub97                     97.26       0.00       0.00       6.41      37.34      49.58      86.92        0.20   166.75   0.894
  sub98                     97.26       0.00       0.00       7.57      26.74      56.22      82.96        0.27   169.84   0.853
  sub99                     97.26       0.00       0.00       8.31      20.03      58.49      78.52        0.28   137.93   0.807
  sub100                    97.26       0.00       0.00       8.31      19.98      55.80      75.78        0.27   118.77   0.779
  sub101                    97.26       0.00       0.00       8.31      19.98      55.52      75.49        0.25   112.86   0.776
  sub102                    97.26       0.00       0.00       7.99      22.76      51.40      74.16        0.22    96.37   0.762
  sub103                    97.26       0.00       0.00       8.20      20.86      51.53      72.39        0.34   141.63   0.744
  sub104                    97.26       0.00       0.00       8.20      20.85      50.94      71.79        0.38   153.13   0.738
  sub105                    97.26       0.00       0.00       8.52      18.04      52.83      70.87        0.40   157.92   0.729
  sub106                    97.26       0.00       0.00       8.31      19.95      53.86      73.82        0.38   159.55   0.759
  sub107                    97.26       0.00       0.00       8.52      18.09      57.23      75.32        0.53   234.06   0.774
  sub108                    97.26       0.00       0.00       8.62      17.19      61.06      78.25        0.73   362.34   0.805
  sub109                    97.26       0.00       0.00       6.55      33.33      47.56      80.90        1.15   694.57   0.832
  sub110                    97.26       0.00       0.00       1.68      68.61      12.89      81.50        1.71  1299.37   0.838
  sub111                    97.26       0.00       0.00       2.47      63.14      18.78      81.92        0.70   526.40   0.842
  sub112                    97.26       0.00       0.00       1.94      65.67      14.89      80.56        0.64   487.25   0.828
  sub113                    97.26       0.00       0.00       1.16      64.23       9.01      73.24        0.51   395.17   0.753
  sub114                    97.26       0.00       0.00       1.08      64.98       8.37      73.35        0.49   380.14   0.754
  sub115                    97.26       0.00       0.00       1.04      68.33       8.04      76.37        0.56   436.31   0.785
  sub116                    97.26       0.00       0.00       4.12      55.45      30.33      85.78        0.16   107.34   0.882
  sub117                    97.26       0.00       0.00       4.14      53.66      30.82      84.48        0.39   268.87   0.869
  

  ***********************
  LID Performance Summary
  ***********************

  --------------------------------------------------------------------------------------------------------------------
                                         Total      Evap     Infil   Surface    Drain    Initial     Final  Continuity
                                        Inflow      Loss      Loss   Outflow   Outflow   Storage   Storage       Error
  Subcatchment      LID Control             mm        mm        mm        mm        mm        mm        mm           %
  --------------------------------------------------------------------------------------------------------------------
  sub1              GreenRoof            97.26      0.00      0.00      0.00      0.00      7.05    104.31       -0.00
  sub2              GreenRoof            97.26      0.00      0.00      0.00      0.00      7.05    104.31       -0.00
  sub3              GreenRoof            97.26      0.00      0.00      0.00      0.00      7.05    104.31       -0.00
  sub4              GreenRoof            97.26      0.00      0.00      0.00      0.00      7.05    104.31       -0.00
  sub5              GreenRoof            97.26      0.00      0.00      0.00      0.00      7.05    104.31       -0.00
  sub6              GreenRoof            97.26      0.00      0.00      0.00      0.00      7.05    104.31       -0.00
  sub7              GreenRoof            97.26      0.00      0.00      0.00      0.00      7.05    104.31       -0.00
  sub8              GreenRoof            97.26      0.00      0.00      0.00      0.00      7.05    104.31       -0.00
  sub9              GreenRoof            97.26      0.00      0.00      0.00      0.00      7.05    104.31       -0.00
  sub10             GreenRoof            97.26      0.00      0.00      0.00      0.00      7.05    104.31       -0.00
  sub11             GreenRoof            97.26      0.00      0.00      0.00      0.00      7.05    104.31       -0.00
  sub12             GreenRoof            97.26      0.00      0.00      0.00      0.00      7.05    104.31       -0.00
  sub14             GreenRoof            97.26      0.00      0.00      0.00      0.00      7.05    104.31       -0.00
  sub15             GreenRoof            97.26      0.00      0.00      0.00      0.00      7.05    104.31       -0.00
  sub16             GreenRoof            97.26      0.00      0.00      0.00      0.00      7.05    104.31       -0.00
  sub17             GreenRoof            97.26      0.00      0.00      0.00      0.00      7.05    104.31       -0.00
  sub18             GreenRoof            97.26      0.00      0.00      0.00      0.00      7.05    104.31       -0.00
  sub19             GreenRoof            97.26      0.00      0.00      0.00      0.00      7.05    104.31       -0.00
  sub20             GreenRoof            97.26      0.00      0.00      0.00      0.00      7.05    104.31       -0.00
  sub20             GreenRoof            97.26      0.00      0.00      0.00      0.00      7.05    104.31       -0.00
  sub21             GreenRoof            97.26      0.00      0.00      0.00      0.00      7.05    104.31       -0.00
  sub22             GreenRoof            97.26      0.00      0.00      0.00      0.00      7.05    104.31       -0.00
  sub23             GreenRoof            97.26      0.00      0.00      0.00      0.00      7.05    104.31       -0.00
  sub24             GreenRoof            97.26      0.00      0.00      0.00      0.00      7.05    104.31       -0.00
  sub26             GreenRoof            97.26      0.00      0.00      0.00      0.00      7.05    104.31       -0.00
  sub27             GreenRoof            97.26      0.00      0.00      0.00      0.00      7.05    104.31       -0.00
  sub28             GreenRoof            97.26      0.00      0.00      0.00      0.00      7.05    104.31       -0.00
  sub29             GreenRoof            97.26      0.00      0.00      0.00      0.00      7.05    104.31       -0.00
  sub30             GreenRoof            97.26      0.00      0.00      0.00      0.00      7.05    104.31       -0.00
  sub31             GreenRoof            97.26      0.00      0.00      0.00      0.00      7.05    104.31       -0.00
  sub32             GreenRoof            97.26      0.00      0.00      0.00      0.00      7.05    104.31       -0.00
  sub33             GreenRoof            97.26      0.00      0.00      0.00      0.00      7.05    104.31       -0.00
  sub34             GreenRoof            97.26      0.00      0.00      0.00      0.00      7.05    104.31       -0.00
  sub35             GreenRoof            97.26      0.00      0.00      0.00      0.00      7.05    104.31       -0.00
  sub36             GreenRoof            97.26      0.00      0.00      0.00      0.00      7.05    104.31       -0.00
  sub37             GreenRoof            97.26      0.00      0.00      0.00      0.00      7.05    104.31       -0.00
  sub38             GreenRoof            97.26      0.00      0.00      0.00      0.00      7.05    104.31       -0.00
  sub39             GreenRoof            97.26      0.00      0.00      0.00      0.00      7.05    104.31       -0.00
  sub40             GreenRoof            97.26      0.00      0.00      0.00      0.00      7.05    104.31       -0.00
  sub41             GreenRoof            97.26      0.00      0.00      0.00      0.00      7.05    104.31       -0.00
  sub42             GreenRoof            97.26      0.00      0.00      0.00      0.00      7.05    104.31       -0.00
  sub44             GreenRoof            97.26      0.00      0.00      0.00      0.00      7.05    104.31       -0.00
  sub45             GreenRoof            97.26      0.00      0.00      0.00      0.00      7.05    104.31       -0.00
  sub46             GreenRoof            97.26      0.00      0.00      0.00      0.00      7.05    104.31       -0.00
  sub47             GreenRoof            97.26      0.00      0.00      0.00      0.00      7.05    104.31       -0.00
  sub48             GreenRoof            97.26      0.00      0.00      0.00      0.00      7.05    104.31       -0.00
  sub49             GreenRoof            97.26      0.00      0.00      0.00      0.00      7.05    104.31       -0.00
  sub50             GreenRoof            97.26      0.00      0.00      0.00      0.00      7.05    104.31       -0.00
  sub51             GreenRoof            97.26      0.00      0.00      0.00      0.00      7.05    104.31       -0.00
  sub52             GreenRoof            97.26      0.00      0.00      0.00      0.00      7.05    104.31       -0.00
  sub53             GreenRoof            97.26      0.00      0.00      0.00      0.00      7.05    104.31       -0.00
  sub54             GreenRoof            97.26      0.00      0.00      0.00      0.00      7.05    104.31       -0.00
  sub55             GreenRoof            97.26      0.00      0.00      0.00      0.00      7.05    104.31       -0.00
  sub56             GreenRoof            97.26      0.00      0.00      0.00      0.00      7.05    104.31       -0.00
  sub57             GreenRoof            97.26      0.00      0.00      0.00      0.00      7.05    104.31       -0.00
  sub60             GreenRoof            97.26      0.00      0.00      0.00      0.00      7.05    104.31       -0.00
  sub61             GreenRoof            97.26      0.00      0.00      0.00      0.00      7.05    104.31       -0.00
  sub62             GreenRoof            97.26      0.00      0.00      0.00      0.00      7.05    104.31       -0.00
  sub67             GreenRoof            97.26      0.00      0.00      0.00      0.00      7.05    104.31       -0.00
  sub68             GreenRoof            97.26      0.00      0.00      0.00      0.00      7.05    104.31       -0.00
  sub71             GreenRoof            97.26      0.00      0.00      0.00      0.00      7.05    104.31       -0.00
  sub72             GreenRoof            97.26      0.00      0.00      0.00      0.00      7.05    104.31       -0.00
  sub73             GreenRoof            97.26      0.00      0.00      0.00      0.00      7.05    104.31       -0.00
  sub74             GreenRoof            97.26      0.00      0.00      0.00      0.00      7.05    104.31       -0.00
  sub75             GreenRoof            97.26      0.00      0.00      0.00      0.00      7.05    104.31       -0.00
  sub76             GreenRoof            97.26      0.00      0.00      0.00      0.00      7.05    104.31       -0.00
  sub77             GreenRoof            97.26      0.00      0.00      0.00      0.00      7.05    104.31       -0.00
  sub78             GreenRoof            97.26      0.00      0.00      0.00      0.00      7.05    104.31       -0.00
  sub79             GreenRoof            97.26      0.00      0.00      0.00      0.00      7.05    104.31       -0.00
  sub80             GreenRoof            97.26      0.00      0.00      0.00      0.00      7.05    104.31       -0.00
  sub81             GreenRoof            97.26      0.00      0.00      0.00      0.00      7.05    104.31       -0.00
  sub82             GreenRoof            97.26      0.00      0.00      0.00      0.00      7.05    104.31       -0.00
  sub83             GreenRoof            97.26      0.00      0.00      0.00      0.00      7.05    104.31       -0.00
  sub84             GreenRoof            97.26      0.00      0.00      0.00      0.00      7.05    104.31       -0.00
  sub85             GreenRoof            97.26      0.00      0.00      0.00      0.00      7.05    104.31       -0.00
  sub86             GreenRoof            97.26      0.00      0.00      0.00      0.00      7.05    104.31       -0.00
  sub88             GreenRoof            97.26      0.00      0.00      0.00      0.00      7.05    104.31       -0.00
  sub89             GreenRoof            97.26      0.00      0.00      0.00      0.00      7.05    104.31       -0.00
  sub90             GreenRoof            97.26      0.00      0.00      0.00      0.00      7.05    104.31       -0.00
  sub91             GreenRoof            97.26      0.00      0.00      0.00      0.00      7.05    104.31       -0.00
  sub109            GreenRoof            97.26      0.00      0.00      0.00      0.00      7.05    104.31       -0.00
  sub110            GreenRoof            97.26      0.00      0.00      0.00      0.00      7.05    104.31       -0.00
  sub111            GreenRoof            97.26      0.00      0.00      0.00      0.00      7.05    104.31       -0.00
  sub112            GreenRoof            97.26      0.00      0.00      0.00      0.00      7.05    104.31       -0.00
  sub113            GreenRoof            97.26      0.00      0.00      0.00      0.00      7.05    104.31       -0.00
  sub114            GreenRoof            97.26      0.00      0.00      0.00      0.00      7.05    104.31       -0.00
  sub115            GreenRoof            97.26      0.00      0.00      0.00      0.00      7.05    104.31       -0.00
  sub116            GreenRoof            97.26      0.00      0.00      0.00      0.00      7.05    104.31       -0.00
  sub117            GreenRoof            97.26      0.00      0.00      0.00      0.00      7.05    104.31       -0.00
  
  ******************
  Node Depth Summary
  ******************
  
  ---------------------------------------------------------------------------------
                                 Average  Maximum  Maximum  Time of Max    Reported
                                   Depth    Depth      HGL   Occurrence   Max Depth
  Node                 Type       Meters   Meters   Meters  days hr:min      Meters
  ---------------------------------------------------------------------------------
  WS02001211           JUNCTION     1.03     2.30     7.13     0  00:47        1.79
  WS02001212           JUNCTION     0.80     1.96     7.02     0  00:47        1.56
  WS02001213           JUNCTION     1.04     2.20     6.96     0  00:47        1.86
  WS02003069           JUNCTION     0.99     1.69     6.27     0  00:51        1.68
  WS02003072           JUNCTION     1.05     1.59     5.96     0  00:51        1.58
  WS02003073           JUNCTION     1.27     1.71     5.77     0  00:51        1.70
  WS02003076           JUNCTION     1.00     1.36     5.58     0  00:51        1.36
  WS02003060           JUNCTION     0.88     1.68     6.61     0  00:51        1.67
  WS02003066           JUNCTION     0.53     1.17     6.72     0  00:51        1.16
  WS02003059           JUNCTION     1.11     1.95     6.63     0  00:47        1.92
  WS02003115           JUNCTION     2.02     2.76     9.62     0  00:33        2.73
  WS02003116           JUNCTION     2.17     3.03     9.74     0  00:24        2.94
  WS02003118           JUNCTION     2.16     2.90     9.52     0  00:24        2.90
  WS02003215           JUNCTION     2.05     2.80     9.66     0  00:33        2.80
  WS02003110           JUNCTION     1.66     2.34     9.59     0  00:51        2.34
  WS02003111           JUNCTION     1.78     2.35     9.44     0  00:33        2.35
  WS02005155           JUNCTION     1.64     2.42     9.73     0  00:50        2.41
  WS02005154           JUNCTION     1.40     2.30     9.93     0  00:51        2.29
  WS02005193           JUNCTION     1.51     3.20    11.02     0  00:45        3.00
  WS02005196           JUNCTION     1.48     3.31    11.16     0  00:28        2.97
  WS02003067           JUNCTION     0.86     1.48     6.80     0  00:51        1.47
  WS02004401           JUNCTION     1.51     2.53     8.53     0  00:49        2.45
  WS02004402           JUNCTION     1.51     2.55     8.51     0  00:49        2.46
  WS02004403           JUNCTION     1.49     2.54     8.47     0  00:49        2.46
  WS02004404           JUNCTION     1.54     2.60     8.45     0  00:49        2.52
  WS02004406           JUNCTION     1.47     2.57     8.40     0  00:49        2.49
  WS02004409           JUNCTION     1.24     2.37     8.14     0  00:49        2.30
  WS02004410           JUNCTION     1.14     2.10     7.82     0  00:51        2.09
  WS02004411           JUNCTION     1.05     1.89     7.57     0  00:51        1.87
  WS02004412           JUNCTION     0.95     1.65     7.29     0  00:50        1.63
  WS02004413           JUNCTION     0.99     1.55     7.02     0  00:51        1.54
  WS02004405           JUNCTION     1.51     2.58     8.43     0  00:49        2.52
  WS02006109           JUNCTION     1.98     2.64     9.26     0  00:43        2.64
  WS02006110           JUNCTION     1.79     2.48     9.07     0  00:59        2.48
  WS02006111           JUNCTION     1.20     2.00     8.70     0  00:49        1.99
  WS02006112           JUNCTION     1.81     2.68     8.56     0  00:00        2.68
  WS02006113           JUNCTION     1.27     2.00     8.89     0  00:49        1.99
  WS02006115           JUNCTION     1.48     2.42     8.56     0  00:49        2.38
  WS02006116           JUNCTION     1.53     2.51     8.55     0  00:49        2.45
  WS02006230           JUNCTION     2.06     2.65     9.39     0  00:39        2.65
  WS02006231           JUNCTION     1.65     2.19     9.31     0  01:36        2.19
  WS02006232           JUNCTION     1.69     2.18     9.22     0  00:38        2.18
  WS02006234           JUNCTION     1.52     1.96     9.12     0  00:37        1.96
  WS02006235           JUNCTION     1.50     1.93     9.10     0  01:14        1.93
  WS02006238           JUNCTION     1.51     1.93     9.08     0  01:26        1.93
  WS02006240           JUNCTION     1.29     1.63     8.92     0  01:39        1.62
  WS02006242           JUNCTION     1.26     1.55     8.82     0  00:26        1.55
  WS02006243           JUNCTION     1.10     1.48     8.90     0  00:27        1.37
  WS02006245           JUNCTION     1.03     1.27     8.76     0  01:38        1.27
  WS02006247           JUNCTION     1.01     1.23     8.73     0  01:47        1.23
  WS02006248           JUNCTION     0.92     1.10     8.69     0  00:27        1.10
  WS02006249           JUNCTION     0.92     1.09     8.69     0  00:27        1.09
  WS02006239           JUNCTION     1.40     1.79     9.00     0  01:41        1.78
  WS02006251           JUNCTION     1.40     2.21     9.88     0  00:45        2.17
  WS02006252           JUNCTION     0.99     1.50     9.74     0  00:45        1.50
  WS02006253           JUNCTION     1.68     3.18    10.83     0  00:45        3.16
  WS02006256           JUNCTION     1.88     2.35     9.28     0  00:16        2.35
  WS02004138           JUNCTION     0.12     0.14     7.39     0  00:33        0.14
  WS02004139           JUNCTION     0.96     2.26     7.17     0  00:47        1.73
  WS02004407           JUNCTION     0.89     2.11     8.42     0  00:49        1.96
  WS02006228           JUNCTION     2.21     3.03     9.68     0  00:50        3.03
  WS02006229           JUNCTION     2.31     3.23     9.92     0  00:49        3.22
  WS02006280           JUNCTION     1.02     1.75    10.02     0  00:49        1.74
  WS02006284           JUNCTION     1.18     1.95    10.35     0  00:49        1.94
  WS02006287           JUNCTION     0.93     1.74    10.70     0  00:49        1.74
  WS02003091           JUNCTION     2.94     4.43    10.23     0  00:00        3.91
  WS02003203           JUNCTION     2.88     3.83     9.82     0  00:00        3.83
  WS6145               JUNCTION     0.47     2.34    10.44     0  00:50        2.31
  WS6147               JUNCTION     0.39     2.26    10.54     0  00:50        2.22
  WS6150               JUNCTION     0.38     2.24    10.57     0  00:50        2.21
  WS6152               JUNCTION     0.39     2.20    10.54     0  00:49        2.19
  WS6155               JUNCTION     0.36     2.10    10.50     0  00:49        2.10
  WS6156               JUNCTION     0.33     2.05    10.52     0  00:49        2.05
  WS6136               JUNCTION     0.41     1.90    10.85     0  00:50        1.90
  WS6140               JUNCTION     0.52     2.46    10.40     0  00:51        2.45
  WS6142               JUNCTION     0.46     2.34    10.42     0  00:51        2.33
  WS6325               JUNCTION     0.75     2.74    10.39     0  00:51        2.72
  WS6327               JUNCTION     0.60     2.59    10.40     0  00:51        2.57
  WS6329               JUNCTION     0.55     2.53    10.41     0  00:51        2.50
  WS6332               JUNCTION     0.48     2.53    10.56     0  00:48        2.35
  WS6158               JUNCTION     0.31     2.05    10.59     0  00:49        2.05
  WS6335               JUNCTION     0.47     2.60    10.67     0  00:48        2.33
  WS6338               JUNCTION     0.41     2.55    10.75     0  00:48        2.27
  WS6340               JUNCTION     0.36     2.50    10.84     0  00:48        2.21
  WS6342               JUNCTION     0.29     2.50    11.10     0  00:48        1.97
  WS6135               JUNCTION     0.90     2.89    10.39     0  00:51        2.88
  WS6396               JUNCTION     0.57     2.02     9.57     0  00:51        2.01
  WS6399               JUNCTION     0.36     1.37     8.80     0  00:51        1.36
  WS02003082           JUNCTION     1.41     1.93     7.00     0  00:53        1.92
  WS02003077           JUNCTION     0.50     0.84     5.85     0  00:51        0.84
  WS02003080           JUNCTION     0.92     1.30     6.24     0  00:51        1.30
  WS02003083           JUNCTION     1.80     2.41     7.44     0  00:51        2.40
  WS02003084           JUNCTION     1.95     2.60     7.70     0  01:00        2.60
  WS02003085           JUNCTION     2.03     2.72     7.89     0  01:02        2.72
  WS02003086           JUNCTION     2.28     3.02     8.23     0  01:01        3.02
  WS02003087           JUNCTION     2.56     3.36     8.57     0  00:58        3.35
  WS02003088           JUNCTION     2.75     4.14     9.43     0  00:00        4.07
  WS02003089           JUNCTION     2.88     4.34     9.80     0  00:00        4.02
  WS02003090           JUNCTION     3.10     4.12     9.55     0  00:00        4.05
  WS02003081           JUNCTION     1.15     1.61     6.66     0  00:51        1.60
  WS02003122           JUNCTION     2.35     3.30     9.67     0  00:23        3.10
  WS02003187           JUNCTION     2.37     3.11     9.44     0  00:23        3.11
  WS02003188           JUNCTION     2.34     2.97     9.23     0  00:23        2.97
  WS02003190           JUNCTION     2.32     2.84     9.04     0  00:23        2.84
  WS02003193           JUNCTION     2.31     2.85     9.09     0  00:23        2.85
  WS02003195           JUNCTION     2.34     2.93     9.18     0  00:23        2.93
  WS02003196           JUNCTION     2.46     3.13     9.31     0  00:50        3.13
  WS02003198           JUNCTION     2.49     3.22     9.41     0  00:50        3.20
  WS02003200           JUNCTION     2.26     3.00     9.43     0  00:31        2.98
  WS02003201           JUNCTION     2.53     3.22     9.36     0  00:31        3.22
  WS02003202           JUNCTION     2.68     4.17    10.23     0  00:00        3.48
  WS02004041           JUNCTION     0.67     0.98     5.34     0  00:51        0.98
  WSA6400              JUNCTION     1.20     2.42     8.26     0  00:51        2.41
  WS6400               JUNCTION     0.53     1.70     8.36     0  00:51        1.68
  WSF208               JUNCTION     0.89     1.94     8.04     0  00:51        1.94
  WSF207               JUNCTION     0.78     1.69     7.83     0  00:51        1.68
  WSF206               JUNCTION     0.86     1.74     7.67     0  00:50        1.73
  WSF205               JUNCTION     0.78     1.61     7.52     0  00:51        1.61
  WSF204               JUNCTION     1.31     2.17     7.32     0  00:51        2.16
  WSF203               JUNCTION     0.68     1.37     7.08     0  00:51        1.36
  WSF202               JUNCTION     0.59     1.20     6.92     0  00:51        1.19
  WSF201               JUNCTION     0.50     1.04     6.77     0  00:51        1.04
  WSF200               JUNCTION     0.67     1.45     6.69     0  00:51        1.45
  HS02004901           JUNCTION     0.77     1.42    11.24     0  00:43        1.42
  HS02004881           JUNCTION     0.60     2.15    11.18     0  00:45        1.90
  HS02004876           JUNCTION     0.73     2.15    11.18     0  00:51        2.15
  HS02004870           JUNCTION     0.63     2.10    11.39     0  00:45        2.03
  HS02004862           JUNCTION     0.64     2.00    11.38     0  00:45        2.00
  HS02004856           JUNCTION     0.67     2.07    11.50     0  00:46        2.03
  HS02004852           JUNCTION     0.61     2.12    11.63     0  00:46        1.97
  HS02004848           JUNCTION     0.59     2.07    11.67     0  00:46        1.91
  HS02004842           JUNCTION     0.90     2.22    11.49     0  00:46        2.22
  HS02004837           JUNCTION     0.62     2.04    11.62     0  00:44        1.92
  HS02004830           JUNCTION     0.69     2.03    11.50     0  00:44        1.99
  HS02004824           JUNCTION     0.74     2.01    11.41     0  00:46        2.01
  HS02004817           JUNCTION     1.22     2.44    11.29     0  00:44        2.41
  HS02004807           JUNCTION     0.90     1.92    11.09     0  00:44        1.92
  HS02004802           JUNCTION     0.90     1.80    10.93     0  00:49        1.80
  HS02004799           JUNCTION     1.01     1.76    10.97     0  00:44        1.76
  HS02004792           JUNCTION     0.81     1.60    11.12     0  00:43        1.60
  HS02004788           JUNCTION     0.62     1.42    11.32     0  00:43        1.37
  HS02004785           JUNCTION     0.66     1.49    11.39     0  00:43        1.37
  HS02004777           JUNCTION     0.78     1.48    11.28     0  00:43        1.46
  HS02004770           JUNCTION     0.76     1.42    11.25     0  00:43        1.42
  HS02004480           JUNCTION     0.90     1.68    10.92     0  00:46        1.63
  HS02004479           JUNCTION     0.94     1.69    10.90     0  00:46        1.67
  HS02004478           JUNCTION     0.79     1.59    10.82     0  00:49        1.58
  HS02004053           JUNCTION     0.31     1.90    10.67     0  00:49        1.10
  HS02004052           JUNCTION     0.39     1.50    11.15     0  00:48        1.38
  HS02004049           JUNCTION     0.23     1.01    11.69     0  00:49        0.86
  HS02004048           JUNCTION     0.52     1.70    12.60     0  00:48        1.70
  HS02004046           JUNCTION     0.49     1.80    13.52     0  00:48        1.80
  HS02004043           JUNCTION     0.30     2.24    14.93     0  00:51        2.24
  HS02004041           JUNCTION     0.17     1.99    17.43     0  00:51        1.95
  HS02004038           JUNCTION     0.14     0.42    19.11     0  00:52        0.42
  HS02004036           JUNCTION     0.00     0.00    22.46     0  00:00        0.00
  HS02004034           JUNCTION     0.00     0.00    26.83     0  00:00        0.00
  HS02004028           JUNCTION     0.21     0.51    37.36     0  00:48        0.51
  HS02004027           JUNCTION     0.16     0.34    36.46     0  00:47        0.34
  HS02004026           JUNCTION     0.17     0.35    35.75     0  00:48        0.35
  HS02004024           JUNCTION     0.18     0.42    34.63     0  00:48        0.41
  HS02004022           JUNCTION     0.25     0.80    33.84     0  00:47        0.80
  HS02004021           JUNCTION     0.30     0.81    32.54     0  00:45        0.81
  HS02004019           JUNCTION     0.36     0.80    31.76     0  00:44        0.80
  HS02004018           JUNCTION     0.24     0.60    33.81     0  00:47        0.60
  HS02004017           JUNCTION     0.23     0.53    34.37     0  00:47        0.53
  HS02004013           JUNCTION     0.17     0.72    35.86     0  00:50        0.72
  HS02004010           JUNCTION     0.06     0.19    38.06     0  00:51        0.19
  HS02003174           JUNCTION     0.19     0.48     6.02     0  00:52        0.48
  HS02003171           JUNCTION     0.21     0.53     6.22     0  00:52        0.53
  HS02003170           JUNCTION     0.25     0.49     6.95     0  00:52        0.49
  HS02003168           JUNCTION     0.13     0.33     6.83     0  00:52        0.33
  HS02003166           JUNCTION     0.24     0.50     6.98     0  00:52        0.50
  HS02003162           JUNCTION     0.24     0.42    30.67     0  00:44        0.42
  HS02003160           JUNCTION     0.17     0.38    28.44     0  00:51        0.38
  HS02003150           JUNCTION     0.19     0.41    26.42     0  00:51        0.40
  HS02003148           JUNCTION     0.21     0.52    22.26     0  00:51        0.52
  HS02003145           JUNCTION     0.27     0.81    14.68     0  00:49        0.81
  HS02003143           JUNCTION     0.39     0.80    13.27     0  00:41        0.80
  HS02003138           JUNCTION     0.24     0.58     7.07     0  01:42        0.58
  HS02003136           JUNCTION     1.50     2.28    10.00     0  00:00        2.28
  HS02003125           JUNCTION     1.57     2.37     9.82     0  00:33        2.29
  HS02003122           JUNCTION     1.61     2.44     9.87     0  00:33        2.39
  HS02003119           JUNCTION     1.38     2.48    10.19     0  00:33        2.19
  HS02003116           JUNCTION     1.05     2.33    10.46     0  00:33        1.80
  HS02003111           JUNCTION     0.47     0.91     9.92     0  00:51        0.91
  HS02003108           JUNCTION     0.38     1.01    10.13     0  00:45        0.88
  HS02003100           JUNCTION     0.27     0.85    10.09     0  00:51        0.81
  HS02003088           JUNCTION     0.22     0.87    10.16     0  00:51        0.81
  HS02003084           JUNCTION     0.10     0.79    10.22     0  00:51        0.71
  HS02003079           JUNCTION     0.07     0.70    10.21     0  00:51        0.64
  HS02003077           JUNCTION     0.02     0.43    10.17     0  00:52        0.41
  HS02003065           JUNCTION     0.71     1.65    10.88     0  00:50        1.64
  HS02003056           JUNCTION     0.75     1.75    10.70     0  00:48        1.74
  HS02003053           JUNCTION     0.53     1.66    10.96     0  00:48        1.62
  HS02003042           JUNCTION     0.36     1.69    11.35     0  00:48        1.40
  HS02003039           JUNCTION     0.40     1.76    11.41     0  00:48        1.47
  HS02003036           JUNCTION     0.22     1.41    11.47     0  00:48        1.25
  HS02003028           JUNCTION     0.34     1.40    11.14     0  00:47        1.40
  HS02003021           JUNCTION     0.36     1.55    10.92     0  00:47        1.49
  HS02003018           JUNCTION     0.38     1.48    10.69     0  00:47        1.48
  HS02003017           JUNCTION     0.38     1.48    10.64     0  00:47        1.48
  HS02003013           JUNCTION     0.37     1.47    10.52     0  00:47        1.42
  HS02003010           JUNCTION     0.39     1.45    10.25     0  00:47        1.30
  HS02003007           JUNCTION     0.35     1.33     9.94     0  00:47        1.09
  HS02003004           JUNCTION     0.43     1.06     9.38     0  00:47        0.98
  HS02003001           JUNCTION     0.12     0.30     8.60     0  00:52        0.30
  YS02001738           JUNCTION     0.00     0.00     8.89     0  00:00        0.00
  YS02001739           JUNCTION     0.00     0.00     8.37     0  00:00        0.00
  YS02001742           JUNCTION     0.00     0.00     8.49     0  00:00        0.00
  YS02001745           JUNCTION     0.15     0.39     7.91     0  00:53        0.39
  YS02001748           JUNCTION     0.18     0.91     7.99     0  00:52        0.91
  YS02001751           JUNCTION     0.20     2.20     9.08     0  00:52        1.09
  YS02001754           JUNCTION     0.24     2.20     8.81     0  00:51        1.31
  YS02001762           JUNCTION     0.44     2.15     8.55     0  00:51        1.77
  YS02001765           JUNCTION     0.43     2.10     8.55     0  00:51        1.77
  YS02001767           JUNCTION     0.44     2.03     8.52     0  00:51        1.80
  YS02001770           JUNCTION     0.50     1.95     8.44     0  00:51        1.90
  YS02001774           JUNCTION     0.57     2.05     8.47     0  00:51        1.96
  YS02001779           JUNCTION     0.32     1.68     8.37     0  00:51        1.68
  YS02001882           JUNCTION     0.78     1.83     8.55     0  00:45        1.67
  YS02001884           JUNCTION     0.88     1.93     8.55     0  00:45        1.77
  YS02001759           JUNCTION     0.45     2.21     8.57     0  00:51        1.74
  YS02001887           JUNCTION     0.96     1.93     8.47     0  00:45        1.85
  YS02001890           JUNCTION     0.98     1.81     8.32     0  00:45        1.81
  YS02001898           JUNCTION     0.75     1.63     8.37     0  00:45        1.56
  YS02001901           JUNCTION     0.85     1.68     8.29     0  00:46        1.67
  YS02001904           JUNCTION     0.83     1.64     8.27     0  00:46        1.63
  YS02001907           JUNCTION     1.15     1.96     8.25     0  00:46        1.96
  YS02001910           JUNCTION     0.97     2.01     8.52     0  00:52        1.99
  YS02001915           JUNCTION     0.81     2.00     8.72     0  00:52        1.97
  YS02001918           JUNCTION     0.54     1.81     8.88     0  00:48        1.68
  YS02001920           JUNCTION     0.63     2.12     9.13     0  00:49        1.77
  YS02001923           JUNCTION     0.45     2.03     9.29     0  00:48        1.55
  YS02001926           JUNCTION     0.45     1.90     9.35     0  00:48        1.39
  YS02001929           JUNCTION     0.31     1.78     9.47     0  00:48        1.17
  YS02001932           JUNCTION     0.21     1.25     9.05     0  00:52        1.06
  YS02001935           JUNCTION     0.16     1.48     9.41     0  00:48        1.15
  YS02001757           JUNCTION     0.44     2.10     8.36     0  00:51        1.61
  YS02001895           JUNCTION     0.74     1.57     8.32     0  00:46        1.56
  YS02005679           JUNCTION     0.00     0.00    10.24     0  00:00        0.00
  YS02005559           JUNCTION     0.11     0.23    10.18     0  00:53        0.23
  YS02005651           JUNCTION     0.07     0.19    10.96     0  00:52        0.19
  YS02005670           JUNCTION     0.08     0.21    10.66     0  00:51        0.21
  YS02005547           JUNCTION     0.06     0.16    10.70     0  00:51        0.16
  YS02005549           JUNCTION     0.08     0.26    11.17     0  00:51        0.25
  YS02005550           JUNCTION     0.11     0.47    11.10     0  00:50        0.40
  YS02005551           JUNCTION     0.06     0.16    10.53     0  00:52        0.16
  YS02005553           JUNCTION     0.13     0.39    10.75     0  00:51        0.37
  YS02005554           JUNCTION     0.07     0.15    10.39     0  00:53        0.15
  YS02005556           JUNCTION     0.13     0.28    10.34     0  00:53        0.28
  YS02005557           JUNCTION     0.07     0.15    10.11     0  00:53        0.15
  YS02005560           JUNCTION     0.08     0.17     9.91     0  00:53        0.17
  YS02005562           JUNCTION     0.13     0.26    10.00     0  00:53        0.26
  YS02005563           JUNCTION     0.07     0.15     9.81     0  00:53        0.15
  YS02005565           JUNCTION     0.11     0.23     9.94     0  00:53        0.23
  YS02005566           JUNCTION     0.09     0.19     9.58     0  00:53        0.19
  YS02005568           JUNCTION     0.15     0.50    10.00     0  00:51        0.41
  YS02005569           JUNCTION     0.11     0.22     9.55     0  00:53        0.22
  YS02005598           JUNCTION     0.24     1.07    10.91     0  00:47        1.07
  YS02005600           JUNCTION     0.20     1.02    10.68     0  00:48        1.02
  YS02005602           JUNCTION     0.45     2.15    10.43     0  00:48        2.15
  YS02005603           JUNCTION     0.15     0.98     9.10     0  00:48        0.58
  YS02005609           JUNCTION     0.09     0.25     9.14     0  00:52        0.24
  YS02005653           JUNCTION     0.14     0.87    11.84     0  00:50        0.87
  YS02005654           JUNCTION     0.15     0.65    11.41     0  00:52        0.65
  YS02005655           JUNCTION     0.06     0.15    10.78     0  00:51        0.15
  YS02005595           JUNCTION     0.35     1.36    11.04     0  00:45        1.36
  YS02005658           JUNCTION     0.12     0.51    11.42     0  00:51        0.51
  YS02005659           JUNCTION     0.06     0.16    10.81     0  00:52        0.16
  YS02005661           JUNCTION     0.15     0.67    11.38     0  00:51        0.67
  YS02005662           JUNCTION     0.05     0.14    10.76     0  00:52        0.14
  YS02005664           JUNCTION     0.15     0.64    11.23     0  00:51        0.64
  YS02005665           JUNCTION     0.05     0.13    10.69     0  00:52        0.13
  YS02005668           JUNCTION     0.05     0.14    10.31     0  00:52        0.14
  YS02005667           JUNCTION     0.30     0.87    10.88     0  00:52        0.87
  YS02005571           JUNCTION     0.18     0.51     9.99     0  00:52        0.50
  YS02005572           JUNCTION     0.12     0.26     9.62     0  00:53        0.26
  YS02005576           JUNCTION     0.13     0.44    10.20     0  00:52        0.35
  YS02005577           JUNCTION     0.11     0.24     9.73     0  00:53        0.24
  YS02005579           JUNCTION     0.33     1.12    10.74     0  00:50        1.12
  YS02005580           JUNCTION     0.20     0.92    10.45     0  00:50        0.69
  YS02005582           JUNCTION     0.34     0.86    10.94     0  00:49        0.86
  YS02005583           JUNCTION     0.17     0.83    10.82     0  00:49        0.41
  YS02005612           JUNCTION     0.47     1.59     9.72     0  00:50        1.59
  YS02005615           JUNCTION     0.06     0.16    11.65     0  00:51        0.16
  YS02005616           JUNCTION     0.05     0.13    10.95     0  00:51        0.12
  YS02005618           JUNCTION     0.09     0.27    11.13     0  00:51        0.27
  YS02005619           JUNCTION     0.06     0.15    10.70     0  00:51        0.15
  YS02005621           JUNCTION     0.10     0.45    11.55     0  00:51        0.33
  YS02005622           JUNCTION     0.04     0.12    11.08     0  00:51        0.12
  YS02005625           JUNCTION     0.04     0.11    11.12     0  00:51        0.11
  YS02005627           JUNCTION     0.12     0.45    11.38     0  00:50        0.41
  YS02005628           JUNCTION     0.04     0.11    11.01     0  00:51        0.11
  YS02005630           JUNCTION     0.11     0.47    11.54     0  00:50        0.42
  YS02005631           JUNCTION     0.05     0.13    11.00     0  00:52        0.13
  YS02005633           JUNCTION     0.10     0.48    11.61     0  00:50        0.41
  YS02005634           JUNCTION     0.05     0.14    10.98     0  00:52        0.14
  YS02005636           JUNCTION     0.12     0.62    11.61     0  00:51        0.62
  YS02005637           JUNCTION     0.06     0.17    10.93     0  00:52        0.17
  YS02005639           JUNCTION     0.11     0.52    11.15     0  00:51        0.52
  YS02005640           JUNCTION     0.06     0.17    10.50     0  00:52        0.17
  YS02005642           JUNCTION     0.08     0.23    11.06     0  00:52        0.23
  YS02005644           JUNCTION     0.16     0.87    11.98     0  00:50        0.87
  YS02005645           JUNCTION     0.08     0.22    11.03     0  00:50        0.22
  YS02005647           JUNCTION     0.24     1.03    11.92     0  00:50        1.03
  YS02005648           JUNCTION     0.09     0.23    11.02     0  00:50        0.23
  YS02005650           JUNCTION     0.15     0.77    11.66     0  00:51        0.77
  YS02005671           JUNCTION     0.04     0.10    10.33     0  00:51        0.10
  YS02005673           JUNCTION     0.08     0.23    10.58     0  00:51        0.23
  YS02005674           JUNCTION     0.05     0.14    10.04     0  00:51        0.14
  YS02005676           JUNCTION     0.00     0.00    10.24     0  00:00        0.00
  YS02005680           JUNCTION     0.05     0.14    10.24     0  00:52        0.14
  YS02005682           JUNCTION     0.00     0.00    10.06     0  00:00        0.00
  YS02005683           JUNCTION     0.03     0.09     9.98     0  00:51        0.09
  YS02005376           JUNCTION     0.81     1.01    11.10     0  00:29        1.01
  YS02005378           JUNCTION     1.34     1.62    11.15     0  00:29        1.62
  YS02005381           JUNCTION     1.23     1.57    11.20     0  00:29        1.57
  YS02005624           JUNCTION     0.23     0.55    11.43     0  00:51        0.54
  YS02005384           JUNCTION     0.39     1.16    10.81     0  00:29        0.53
  YS02005677           JUNCTION     0.06     0.16    10.24     0  00:51        0.16
  YSB1105              JUNCTION     0.30     1.36    10.84     0  00:53        0.80
  YSB1106              JUNCTION     0.28     1.75    11.59     0  00:49        0.90
  YSB1109              JUNCTION     0.36     1.71    11.65     0  00:49        1.20
  YSB1112              JUNCTION     0.37     1.78    11.91     0  00:53        1.42
  YSB1115              JUNCTION     0.34     1.90    12.20     0  00:49        1.40
  YSB1118              JUNCTION     0.36     1.80    12.34     0  00:49        1.49
  YSB1121              JUNCTION     0.42     1.70    12.37     0  00:49        1.70
  YSB1124              JUNCTION     0.28     1.60    12.43     0  00:49        1.55
  YSB1128              JUNCTION     0.48     1.85    12.43     0  00:44        1.50
  YSB1132              JUNCTION     0.53     1.90    12.35     0  00:44        1.62
  YSB1228              JUNCTION     0.06     0.17    11.02     0  00:51        0.17
  YSB1202              JUNCTION     0.99     1.50    12.39     0  00:40        1.46
  YSB1135              JUNCTION     0.65     2.00    12.26     0  00:44        1.81
  YSB1138              JUNCTION     0.74     1.90    12.07     0  00:44        1.90
  YSB1141              JUNCTION     0.79     2.00    11.83     0  00:44        1.85
  YSB1145              JUNCTION     0.80     2.00    11.69     0  00:44        1.84
  YSB1148              JUNCTION     0.87     2.00    11.50     0  00:44        1.89
  YSB1151              JUNCTION     1.06     2.09    11.32     0  00:44        2.00
  YSB1154              JUNCTION     1.20     2.10    11.16     0  00:44        2.10
  YSB1198              JUNCTION     0.25     1.60    12.39     0  00:45        1.17
  YSB1192              JUNCTION     0.46     1.90    12.17     0  00:44        1.69
  YSB6556              JUNCTION     1.03     1.80    10.97     0  00:44        1.80
  YSB1205              JUNCTION     1.17     1.65    12.35     0  00:40        1.65
  YSB1209              JUNCTION     1.15     1.65    12.22     0  00:48        1.65
  YSB1212              JUNCTION     1.06     1.60    12.13     0  00:48        1.60
  YSB1215              JUNCTION     1.07     1.69    12.04     0  00:58        1.69
  YSB1218              JUNCTION     1.08     1.75    11.94     0  00:48        1.75
  YSB1221              JUNCTION     1.00     1.78    11.75     0  00:53        1.59
  YSB1224              JUNCTION     0.87     1.71    11.56     0  00:53        1.36
  YSB1195              JUNCTION     0.41     1.90    12.28     0  00:44        1.59
  YSB1189              JUNCTION     0.56     1.80    11.96     0  00:44        1.80
  YSB1186              JUNCTION     0.62     1.93    11.80     0  00:44        1.74
  YSB1183              JUNCTION     0.76     2.05    11.64     0  00:44        1.88
  YSB1180              JUNCTION     0.78     1.95    11.46     0  00:44        1.83
  YSB1177              JUNCTION     1.04     2.05    11.24     0  00:44        2.01
  YSB1174              JUNCTION     1.09     1.95    11.06     0  00:49        1.95
  YSB1171              JUNCTION     1.24     1.95    10.85     0  00:44        1.95
  YS02006553           JUNCTION     1.15     2.01     8.30     0  00:46        1.99
  YS02006561           JUNCTION     0.41     1.22     7.88     0  00:46        0.92
  YS02006562           JUNCTION     0.92     1.85     8.36     0  00:46        1.79
  YS02006556           JUNCTION     1.11     2.03     8.34     0  00:46        1.98
  YS02006558           JUNCTION     1.15     2.08     8.35     0  00:46        2.04
  YS6132               JUNCTION     0.57     3.40    10.72     0  00:59        1.57
  YS6137               JUNCTION     0.29     2.73    10.52     0  00:51        1.40
  YS6189               JUNCTION     0.39     2.80    10.59     0  00:52        1.66
  YS6184               JUNCTION     0.39     2.65    10.54     0  00:52        1.91
  YS6179               JUNCTION     0.33     2.60    10.58     0  00:52        1.94
  YS6176               JUNCTION     0.25     2.40    10.60     0  00:52        1.81
  YS6171               JUNCTION     0.26     2.10    10.51     0  00:51        1.87
  YS6168               JUNCTION     0.28     2.00    10.51     0  00:51        2.00
  YS6164               JUNCTION     0.10     1.90    10.63     0  00:51        1.90
  YS6162               JUNCTION     0.15     2.10    10.75     0  00:51        1.98
  YS6187               JUNCTION     0.44     2.75    10.53     0  00:52        1.76
  YS6363               JUNCTION     0.34     2.85    10.64     0  00:52        1.32
  YS6360               JUNCTION     0.45     3.00    10.80     0  00:52        1.45
  YS6354               JUNCTION     0.44     2.60    10.75     0  00:51        1.80
  YS6351               JUNCTION     0.53     2.50    10.71     0  00:51        2.14
  YS6350               JUNCTION     0.60     2.50    10.72     0  00:51        2.34
  YS6348               JUNCTION     0.56     2.45    10.85     0  00:49        2.45
  YS6344               JUNCTION     0.38     2.27    10.86     0  00:49        2.26
  YS6375               JUNCTION     0.10     0.35     8.78     0  00:52        0.35
  YS6377               JUNCTION     0.16     0.42     8.78     0  00:52        0.42
  YS6381               JUNCTION     0.18     0.49     8.62     0  00:52        0.49
  YS6386               JUNCTION     0.21     0.57     8.55     0  00:52        0.57
  YS6390               JUNCTION     0.43     0.68     8.37     0  00:52        0.68
  YS6394               JUNCTION     0.12     0.28     8.20     0  00:52        0.28
  YS6404               JUNCTION     0.53     3.00    10.23     0  00:51        1.20
  YS6401               JUNCTION     0.17     0.42     7.64     0  00:52        0.41
  YS02004319           JUNCTION     0.35     1.18    20.80     0  00:44        1.18
  YS02004320           JUNCTION     0.00     0.00    22.64     0  01:05        0.00
  YS02004321           JUNCTION     0.00     0.00    26.80     0  00:53        0.00
  YS02004307           JUNCTION     0.17     0.52    11.05     0  00:51        0.52
  YS02004309           JUNCTION     0.85     1.55    13.07     0  00:34        1.55
  YS02004312           JUNCTION     0.54     1.48    14.91     0  00:42        1.48
  YS02004314           JUNCTION     0.40     1.28    16.99     0  00:44        1.28
  YS02004316           JUNCTION     0.41     1.36    19.13     0  00:44        1.36
  YS02001783           JUNCTION     0.64     1.48     7.62     0  00:46        1.25
  YS02001784           JUNCTION     0.61     1.24     7.31     0  00:46        1.12
  YS02001786           JUNCTION     0.49     0.98     7.01     0  00:46        0.88
  YS02001788           JUNCTION     0.36     0.62     6.60     0  00:48        0.62
  YS02001790           JUNCTION     0.42     0.72     6.36     0  01:02        0.72
  YS02001791           JUNCTION     0.26     0.44     5.91     0  00:55        0.43
  YS02001793           JUNCTION     0.13     0.30     5.13     0  01:11        0.28
  YS02003309           JUNCTION     0.62     1.21     9.77     0  00:30        1.20
  YS02003306           JUNCTION     0.74     1.16     9.60     0  00:30        1.16
  YS02003269           JUNCTION     0.14     0.17     7.76     0  00:46        0.17
  YS02003272           JUNCTION     0.38     0.91     8.64     0  00:30        0.58
  YS02003278           JUNCTION     0.76     1.21     9.13     0  00:56        1.21
  YS02003281           JUNCTION     0.84     1.39     9.47     0  00:45        1.39
  YS02003284           JUNCTION     0.93     1.40     9.41     0  00:45        1.40
  YS02003287           JUNCTION     0.88     1.27     9.34     0  00:30        1.27
  YS02003290           JUNCTION     0.74     1.11     9.40     0  00:54        1.10
  YS02003294           JUNCTION     0.89     1.24     9.42     0  00:30        1.24
  YS02003275           JUNCTION     0.57     0.92     8.83     0  00:53        0.91
  YS02003297           JUNCTION     0.87     1.22     9.43     0  00:30        1.22
  YS02003300           JUNCTION     0.81     1.15     9.42     0  00:30        1.15
  YS02003303           JUNCTION     0.80     1.14     9.46     0  00:30        1.14
  YSB1227              JUNCTION     0.01     0.12    11.02     0  00:51        0.11
  CaochengRainPumpOutfall1 OUTFALL      0.00     0.00     6.00     0  00:00        0.00
  JiankangRainPumpOutfall2 OUTFALL      0.00     0.00     6.00     0  00:00        0.00
  JiankangRainPumpOutfall1 OUTFALL      0.00     0.00     6.00     0  00:00        0.00
  CaochengRainPumpOutfall2 OUTFALL      0.00     0.00     6.00     0  00:00        0.00
  YS02005684           OUTFALL      0.03     0.09     8.49     0  00:51        0.09
  YS02005681           OUTFALL      0.05     0.14     9.36     0  00:52        0.14
  YS02005678           OUTFALL      0.06     0.16     8.69     0  00:51        0.16
  YS02005675           OUTFALL      0.05     0.14     8.68     0  00:51        0.14
  YS02005672           OUTFALL      0.04     0.10     8.44     0  00:51        0.10
  YS02005669           OUTFALL      0.05     0.14     8.86     0  00:52        0.14
  YS02005666           OUTFALL      0.05     0.13     8.81     0  00:52        0.13
  YS02005663           OUTFALL      0.05     0.14     8.87     0  00:52        0.14
  YS02005660           OUTFALL      0.06     0.15     8.97     0  00:52        0.15
  YS02005657           OUTFALL      0.00     0.00     8.74     0  00:00        0.00
  YS02005652           OUTFALL      0.07     0.19     8.82     0  00:52        0.19
  YS02005649           OUTFALL      0.09     0.23     8.93     0  00:50        0.23
  YS02005646           OUTFALL      0.08     0.22     8.22     0  00:51        0.22
  YS02005643           OUTFALL      0.08     0.23     8.78     0  00:52        0.23
  YS02005641           OUTFALL      0.06     0.17     8.86     0  00:52        0.17
  YS02005638           OUTFALL      0.06     0.17     8.83     0  00:52        0.17
  YS02005635           OUTFALL      0.05     0.14     8.81     0  00:52        0.14
  YS02005632           OUTFALL      0.05     0.13     8.69     0  00:52        0.13
  YS02005629           OUTFALL      0.04     0.11     8.59     0  00:51        0.11
  YS02005626           OUTFALL      0.04     0.11     8.63     0  00:51        0.11
  YS02005623           OUTFALL      0.04     0.12     8.59     0  00:51        0.12
  YS02005620           OUTFALL      0.05     0.15     8.94     0  00:51        0.15
  YS02005617           OUTFALL      0.05     0.13     8.96     0  00:51        0.12
  YSB1103              OUTFALL      0.29     0.60     8.60     0  00:50        0.60
  YSB1229              OUTFALL      0.06     0.17     8.97     0  00:51        0.17
  YS02005548           OUTFALL      0.06     0.16     9.16     0  00:51        0.16
  YS02005552           OUTFALL      0.06     0.15     8.78     0  00:52        0.15
  YS02005555           OUTFALL      0.07     0.15     8.88     0  00:53        0.15
  YS02005558           OUTFALL      0.07     0.15     8.85     0  00:53        0.15
  YS02005561           OUTFALL      0.08     0.17     8.85     0  00:53        0.17
  YS02005564           OUTFALL      0.07     0.15     8.62     0  00:53        0.14
  YS02005567           OUTFALL      0.09     0.19     8.73     0  00:53        0.19
  YS02005570           OUTFALL      0.11     0.22     8.94     0  00:53        0.22
  YS02005574           OUTFALL      0.12     0.28     9.12     0  00:53        0.28
  YS02005578           OUTFALL      0.11     0.24     9.02     0  00:53        0.24
  WS02005134           OUTFALL      0.00     0.00     8.74     0  00:00        0.00
  YS02005581           OUTFALL      0.14     0.30     9.10     0  00:50        0.30
  YS02005584           OUTFALL      0.15     0.30     9.26     0  00:48        0.30
  YS02005593           OUTFALL      0.25     0.28     9.00     0  00:55        0.28
  YS02005596           OUTFALL      0.15     0.30     8.84     0  00:45        0.30
  YS02005374           OUTFALL      0.13     0.30     8.54     0  00:47        0.30
  YS02005375           OUTFALL      0.12     0.30     8.69     0  00:47        0.30
  YS02005607           OUTFALL      0.12     0.30     7.53     0  00:48        0.30
  YS02005610           OUTFALL      0.09     0.24     8.86     0  00:52        0.24
  YS02005613           OUTFALL      0.15     0.30     8.58     0  00:49        0.30
  HS02003172           OUTFALL      0.19     0.48     5.93     0  00:52        0.48
  YS6395               OUTFALL      0.12     0.28     6.71     0  00:52        0.28
  YS6405               OUTFALL      0.17     0.41     3.86     0  00:52        0.40
  WSC                  OUTFALL      0.62     0.80     5.00     0  00:38        0.80
  JiankangQianchi      STORAGE      2.88     4.21     5.01     0  01:11        4.19
  CaochengTiaoxuchi    STORAGE      0.99     1.38     6.88     0  01:07        1.38
  XierchiQianchi       STORAGE      7.02     7.47     5.47     0  02:02        7.47
  
  
  *******************
  Node Inflow Summary
  *******************
  
  -------------------------------------------------------------------------------------------------
                                  Maximum  Maximum                  Lateral       Total        Flow
                                  Lateral    Total  Time of Max      Inflow      Inflow     Balance
                                   Inflow   Inflow   Occurrence      Volume      Volume       Error
  Node                 Type           LPS      LPS  days hr:min    10^6 ltr    10^6 ltr     Percent
  -------------------------------------------------------------------------------------------------
  WS02001211           JUNCTION      7.35   226.66     0  00:46      0.0538        1.18       4.289
  WS02001212           JUNCTION      0.00   232.75     0  01:26           0        1.14       2.398
  WS02001213           JUNCTION      0.00   243.31     0  01:26           0        1.12       3.324
  WS02003069           JUNCTION      0.32  2520.17     0  00:51     0.00234        10.7       0.666
  WS02003072           JUNCTION      0.00  2520.22     0  00:51           0        10.6       0.569
  WS02003073           JUNCTION      1.82  3088.01     0  00:51      0.0133          14       0.276
  WS02003076           JUNCTION      0.00  3088.09     0  00:51           0          14       0.302
  WS02003060           JUNCTION     16.53  2519.90     0  00:51       0.121        10.8       0.539
  WS02003066           JUNCTION      0.00  2307.52     0  00:51           0        9.62       0.106
  WS02003059           JUNCTION      0.00   249.42     0  01:26           0        1.11       5.231
  WS02003115           JUNCTION      0.00   477.09     0  01:03           0        1.14       0.459
  WS02003116           JUNCTION      0.00   277.24     0  00:24           0        1.11       0.732
  WS02003118           JUNCTION      0.14   227.66     0  00:24    4.18e-06        1.11       1.356
  WS02003215           JUNCTION      0.19  2276.78     0  00:52    2.25e-05        2.99       0.903
  WS02003110           JUNCTION      0.18   436.91     0  00:52     0.00132       0.567       1.310
  WS02003111           JUNCTION      1.52   915.29     0  00:52      0.0107        1.63       0.436
  WS02005155           JUNCTION      0.38   436.60     0  00:52     0.00279       0.565       1.746
  WS02005154           JUNCTION    436.31   436.31     0  00:52       0.561       0.562       1.040
  WS02005193           JUNCTION      0.00   180.88     0  00:28           0      0.0154     136.348
  WS02005196           JUNCTION      0.00   126.20     0  00:28           0     0.00573     548.278
  WS02003067           JUNCTION      0.00  1873.05     0  00:50           0        7.59       0.195
  WS02004401           JUNCTION      0.00  1104.82     0  01:36           0        5.78       0.546
  WS02004402           JUNCTION      0.00  1104.89     0  01:36           0        5.76       0.484
  WS02004403           JUNCTION      0.00  1105.00     0  01:36           0        5.74       0.421
  WS02004404           JUNCTION      0.16  1105.16     0  01:36     0.00119        5.72       0.287
  WS02004406           JUNCTION      0.00  1105.51     0  01:36           0         5.7       0.719
  WS02004409           JUNCTION      0.06  1822.79     0  00:49    5.92e-05        8.31       0.422
  WS02004410           JUNCTION      0.00  1872.90     0  00:50           0        8.38       0.427
  WS02004411           JUNCTION      0.00  1872.91     0  00:50           0         7.7       0.447
  WS02004412           JUNCTION      0.00  1872.60     0  00:50           0        7.66       0.446
  WS02004413           JUNCTION      0.00  1872.78     0  00:50           0        7.63       0.572
  WS02004405           JUNCTION      0.19  1106.03     0  01:36    0.000444        5.72       0.424
  WS02006109           JUNCTION      1.95  1308.01     0  00:00     0.00964        6.65       0.340
  WS02006110           JUNCTION      0.34  1104.26     0  01:36    0.000269        5.93      -0.328
  WS02006111           JUNCTION      0.04  1176.04     0  00:00    1.06e-05        5.92      -0.298
  WS02006112           JUNCTION      0.48  2307.30     0  00:00    2.71e-05        5.94       0.278
  WS02006113           JUNCTION      0.05  1104.32     0  01:36    1.08e-05        5.91      -0.359
  WS02006115           JUNCTION      0.00  1366.62     0  00:00           0        5.83       0.564
  WS02006116           JUNCTION      0.36  1104.73     0  01:36    0.000433         5.8       0.468
  WS02006230           JUNCTION     10.43  1027.03     0  00:49      0.0753        3.55       0.467
  WS02006231           JUNCTION      0.54   453.37     0  00:48     0.00147        2.08       0.776
  WS02006232           JUNCTION      0.25   453.54     0  01:18     0.00013         2.1       0.860
  WS02006234           JUNCTION      0.12   453.33     0  01:18    3.81e-06        2.11       0.580
  WS02006235           JUNCTION      0.27   415.31     0  00:52    0.000521        2.16       0.508
  WS02006238           JUNCTION      0.00   415.50     0  01:42           0        2.17       0.339
  WS02006240           JUNCTION      0.00   415.17     0  00:52           0         2.2       0.753
  WS02006242           JUNCTION      0.39   415.24     0  00:52    0.000175        2.21       0.891
  WS02006243           JUNCTION      0.70   278.66     0  00:25     0.00144        1.65       0.990
  WS02006245           JUNCTION      0.00   285.45     0  00:25           0        1.66       0.807
  WS02006247           JUNCTION      0.00   296.62     0  00:26           0        1.67       0.716
  WS02006248           JUNCTION      0.00   344.57     0  00:37           0        2.03       0.546
  WS02006249           JUNCTION      0.00  1385.51     0  00:52           0        5.79       0.292
  WS02006239           JUNCTION      0.00   415.32     0  00:52           0        2.18       0.585
  WS02006251           JUNCTION      0.08  1734.82     0  00:52    0.000564        6.05       0.304
  WS02006252           JUNCTION      0.00   749.45     0  00:52           0        2.42       0.018
  WS02006253           JUNCTION     59.55  1734.80     0  00:52      0.0759        4.48       0.461
  WS02006256           JUNCTION      0.00   300.00     0  00:32           0        1.61       0.062
  WS02004138           JUNCTION      0.00   190.00     0  00:29           0        1.17       0.258
  WS02004139           JUNCTION      0.32   190.32     0  00:33     0.00235        1.17       3.565
  WS02004407           JUNCTION      0.09  1822.44     0  00:49    9.11e-05        8.37       0.331
  WS02006228           JUNCTION      1.23  1289.02     0  00:49    0.000967        6.63       0.234
  WS02006229           JUNCTION      0.97  2305.97     0  00:49     0.00082          10       0.270
  WS02006280           JUNCTION      0.25  2305.57     0  00:49    0.000374        9.89       0.031
  WS02006284           JUNCTION      0.18  2305.48     0  00:49    0.000738        9.91       0.162
  WS02006287           JUNCTION      0.19  2305.78     0  00:49    8.08e-05        9.92       0.107
  WS02003091           JUNCTION      0.49  1200.35     0  00:00     0.00105        3.52      -1.118
  WS02003203           JUNCTION      0.33  2264.56     0  00:00    0.000136        5.56       0.182
  WS6145               JUNCTION      0.29   231.08     0  00:49      0.0004      0.0901       0.370
  WS6147               JUNCTION      0.00   231.09     0  00:49           0      0.0791       0.215
  WS6150               JUNCTION      0.17   230.97     0  00:49    0.000475      0.0683       0.537
  WS6152               JUNCTION      0.58   238.68     0  00:49     0.00422      0.0573       0.671
  WS6155               JUNCTION      0.01   233.96     0  00:49    4.01e-05      0.0424       0.542
  WS6156               JUNCTION      0.72   236.25     0  00:49     0.00382      0.0312       0.345
  WS6136               JUNCTION      0.22   723.96     0  00:48    5.38e-05        1.57       0.053
  WS6140               JUNCTION      0.21   230.81     0  00:49     0.00013        0.11       0.126
  WS6142               JUNCTION      0.22   230.98     0  00:49    0.000161       0.101       0.223
  WS6325               JUNCTION      0.22   128.03     0  00:48    0.000197      0.0883       2.097
  WS6327               JUNCTION      0.18   126.87     0  00:48     0.00049      0.0785       0.148
  WS6329               JUNCTION      0.55   127.59     0  00:48     0.00194      0.0679       0.197
  WS6332               JUNCTION      0.38   128.31     0  00:48     0.00079      0.0551       0.180
  WS6158               JUNCTION      1.73   255.23     0  00:49      0.0119      0.0156      -0.554
  WS6335               JUNCTION      0.70   129.62     0  00:48     0.00364      0.0432       0.387
  WS6338               JUNCTION      0.39   130.18     0  00:48     0.00112      0.0283       0.219
  WS6340               JUNCTION      0.26   127.95     0  00:48    0.000231      0.0155      -0.078
[...]
  WS02003073WS02003076        0.76      0.76      1.45      0.28         0.01
  HS02004901HS02004770        0.78      0.78      0.79      0.09         0.01
  HS02004876HS02004881        0.77      0.79      0.77      1.61         0.77
  HS02004870HS02004876        0.71      0.71      0.79      0.01         0.01
  HS02004049HS02004052        0.18      0.18      0.21      0.01         0.01
  HS02004048HS02004049        0.29      0.41      0.29      0.48         0.29
  HS02004046HS02004048        0.20      0.20      0.41      0.01         0.01
  HS02004043HS02004046        0.17      0.17      0.23      0.07         0.07
  HS02004041HS02004043        0.05      0.05      0.16      0.01         0.01
  HS02004038HS02004041        0.01      0.01      0.04      0.01         0.01
  HS02004028HS02004027        0.01      0.18      0.01      0.20         0.01
  HS02003143HS02003065        0.61      0.61      0.84      0.01         0.01
  HS02004842HS02004848        0.62      0.62      0.85      0.01         0.01
  HS02004837HS02004842        0.67      0.67      0.85      0.01         0.01
  HS02004830HS02004837        0.67      0.67      0.72      0.01         0.01
  HS02004824HS02004830        0.72      0.72      0.77      0.01         0.01
  HS02004817HS02004824        0.77      0.77      1.56      0.01         0.01
  HS02004770HS02004777        0.78      0.78      0.80      0.01         0.01
  HS02004799HS02004480        0.96      0.96      1.06      1.08         0.01
  HS02004792HS02004799        0.90      0.90      1.06      0.01         0.01
  HS02004788HS02004792        0.73      0.73      0.90      0.01         0.01
  HS02004785HS02004788        0.73      0.74      0.73      1.47         0.61
  HS02004777HS02004785        0.74      0.74      0.80      0.01         0.01
  HS02004480HS02004478        0.88      0.96      0.88      1.70         0.88
  HS02004479HS02004480        0.97      0.97      1.01      0.01         0.01
  HS02003013HS02003010        0.38      0.38      0.42      0.25         0.25
  HS02003010HS02003007        0.36      0.37      0.38      0.41         0.36
  HS02003007HS02003004        0.38      0.38      0.48      0.21         0.21
  HS02003004HS02003001        0.01      0.48      0.01      1.10         0.01
  HS02003065HS02003056        0.82      0.82      0.98      0.01         0.01
  HS02003042HS02003053        0.32      0.32      0.77      0.01         0.01
  HS02003028HS02003021        0.25      0.25      0.32      0.01         0.01
  HS02003021HS02003018        0.35      0.35      0.36      0.12         0.12
  HS02003018HS02003017        0.37      0.37      0.37      0.07         0.06
  HS02003017HS02003013        0.37      0.37      0.38      0.30         0.29
  HS02004862HS02004870        0.68      0.68      0.71      0.26         0.25
  HS02004848HS02004852        0.62      0.62      0.65      0.03         0.01
  HS02004856HS02004862        0.63      0.63      0.68      0.01         0.01
  HS02004852HS02004856        0.65      0.65      0.68      0.02         0.01
  HS02004024HS02004022        0.01      0.01      0.23      0.01         0.01
  HS02004022HS02004021        0.23      0.23      0.34      0.01         0.01
  HS02004021HS02004019        0.34      0.34      0.44      0.26         0.27
  HS02004019HS02003162        0.01      0.44      0.01      0.47         0.01
  HS02004052HS02004053        0.20      0.21      0.20      0.22         0.20
  HS02003122HS02003125        1.50      1.50      1.50      0.18         0.21
  HS02003119HS02003122        1.48      1.48      1.50      0.01         0.01
  HS02003116HS02003119        1.22      1.22      1.48      0.01         0.01
  HS02003111HS02003116        0.01      0.01      1.29      0.01         0.01
  HS02004018HS02004019        0.27      0.27      0.44      0.01         0.01
  HS02003056HS02003136        0.84      0.84      1.52      0.01         0.01
  HS02004017HS02004018        0.26      0.26      0.27      0.01         0.01
  HS02004013HS02004017        0.08      0.08      0.26      0.09         0.08
  HS02004010HS02004013        0.01      0.01      0.08      0.01         0.01
  HS02004802HS02004478        0.89      0.89      0.97      0.20         0.01
  HS02004478WS02006287        0.74      0.74      0.95      0.01         0.01
  HS02003079HS02003084        0.01      0.01      0.03      0.01         0.01
  HS02003148HS02003145        0.01      0.01      0.15      0.01         0.01
  HS02003145HS02003143        0.15      0.15      0.59      0.14         0.13
  HS02003136WS02003203        1.53      1.53      1.65      0.01         0.01
  HS02003084HS02003088        0.03      0.03      0.06      0.01         0.01
  HS02003077HS02003079        0.01      0.01      0.01      0.01         0.01
  HS02003108HS02003111        0.17      0.17      0.41      0.01         0.01
  HS02003100HS02003108        0.09      0.09      0.17      0.01         0.01
  HS02003088HS02003100        0.07      0.07      0.09      0.01         0.01
  HS02004817HS02004807        0.94      0.94      1.56      0.01         0.01
  HS02004807HS02004802        0.94      0.94      0.96      0.35         0.36
  HS02003053HS02003056        0.77      0.77      0.98      0.01         0.01
  HS02003039HS02003042        0.37      0.38      0.42      0.25         0.02
  HS02003036HS02003039        0.20      0.20      0.25      0.01         0.01
  YS02001759YS02001757        0.14      0.14      0.14      0.17         0.13
  YS02001762YS02001759        0.14      0.14      0.14      0.15         0.13
  YS02001765YS02001762        0.14      0.14      0.14      0.09         0.08
  YS02001770YS02001767        0.14      0.16      0.14      0.66         0.14
  YS02001774YS02001770        0.15      0.15      0.18      0.01         0.01
  YS02001779YS02001774        0.12      0.12      0.18      0.01         0.01
  YS02001767YS02001765        0.14      0.14      0.14      0.19         0.13
  YS02006561YS02001783        0.46      0.46      0.66      0.01         0.01
  YS02001783YS02001784        0.63      0.66      0.63      0.83         0.63
  YS02001784YS02001785        0.52      0.63      0.52      1.14         0.52
  YS02001790YS02001791        0.01      0.01      0.01      0.62         0.01
  YS02001910YS02001907        0.69      0.69      0.90      0.04         0.04
  YS02001786YS02001788        0.01      0.52      0.01      0.95         0.01
  YS02001915YS02001910        0.60      0.60      0.69      0.01         0.01
  YS02001918YS02001915        0.51      0.51      0.60      0.01         0.01
  YS02001923YS02001920        0.44      0.44      0.52      0.01         0.01
  YS02001926YS02001923        0.19      0.19      0.21      0.01         0.01
  YS02001929YS02001926        0.07      0.07      0.21      0.01         0.01
  YS02001932YS02001929        0.02      0.02      0.07      0.01         0.01
  YS02001935YS02001932        0.01      0.01      0.01      0.01         0.01
  YS02001920YS02001918        0.51      0.51      0.52      0.01         0.01
  YS02003290YS02003287        1.48      1.48      1.63      0.01         0.01
  YS02003294YS02003290        1.50      1.50      1.68      0.04         0.01
  YS02003297YS02003294        1.66      1.66      1.66      0.26         0.26
  YS02003275YS02003272        1.21      1.35      1.21      1.60         1.21
  YS02003300YS02003297        1.56      1.56      1.63      0.01         0.01
  YS02003303YS02003300        1.46      1.46      1.60      0.01         0.01
  YS02005550YS02005551        0.01      0.07      0.01      0.12         0.01
  YS02005568YS02005569        0.01      0.16      0.01      0.29         0.01
  YS02005582YS02005583        0.38      0.63      0.38      0.86         0.38
  YS02003272YS02003269        0.01      1.30      0.01      1.60         0.01
  YS02003278YS02003275        1.41      1.64      1.41      1.74         1.41
  YS02003281YS02003278        1.60      1.60      1.63      1.40         1.39
  YS02003284YS02003281        1.60      1.60      1.64      1.03         0.33
  YS02003287YS02003284        1.62      1.62      1.65      0.01         0.05
  YS02003306YS02003303        1.40      1.40      1.56      0.45         0.45
  YS02003309YS02003306        1.27      1.27      1.40      0.01         0.01
  YS02005600YS02005375        0.18      0.18      0.19      0.19         0.18
  YS02005384YS02005593        0.01      1.43      0.01      1.50         0.01
  YS02005595YS02005596        0.33      0.34      0.33      0.36         0.33
  YS02005612YS02005613        0.16      0.16      1.13      0.37         0.01
  YS02005549YS02005547        0.01      0.01      0.01      0.02         0.01
  YS02005553YS02005554        0.01      0.11      0.01      0.26         0.01
  YS02005556YS02005557        0.01      0.01      0.01      0.31         0.01
  YS02005562YS02005563        0.01      0.01      0.01      0.24         0.01
  YS02005571YS02005572        0.01      0.29      0.01      0.45         0.01
  YS02005572YS02005574        0.01      0.01      0.01      0.09         0.01
  YS02005576YS02005577        0.01      0.09      0.01      0.17         0.01
  YS02005579YS02005580        0.30      0.49      0.30      0.69         0.30
  YS02005580YS02005581        0.27      0.30      0.27      0.32         0.27
  YS02005583YS02005584        0.38      0.38      0.39      0.39         0.38
  YS02006553YS02006556        0.79      0.79      0.92      0.01         0.01
  YS02006556YS02006558        0.86      0.86      0.95      0.01         0.01
  YSB6556YSB1171              1.10      1.10      1.64      0.01         0.01
  YSB1202YSB1205              1.37      1.37      1.39      0.01         0.01
  YSB1205YSB1209              1.38      1.39      1.38      0.78         0.73
  YSB1209YSB1212              1.36      1.38      1.36      1.50         1.36
  YSB1212YSB1215              1.36      1.36      1.36      0.55         0.54
  YSB1215YSB1218              1.36      1.36      1.36      0.61         0.60
  YSB1218YSB1221              1.35      1.35      1.37      1.34         1.34
  YSB1221YSB1224              1.37      1.37      1.37      1.35         1.36
  YSB1224YSB1105              1.17      1.41      1.17      1.51         1.17
  YSB1189YSB1186              0.66      0.66      0.78      0.21         0.22
  YS02001907YS02006553        1.15      1.15      1.25      0.01         0.01
  YS02006562YS02006558        0.66      0.66      0.95      0.01         0.01
  YS02006558YS02006561        0.55      0.78      0.55      1.08         0.55
  YS6184YS6187                0.14      0.14      0.15      0.08         0.08
  YS6360YS6363                0.11      0.16      0.11      0.71         0.11
  YS6354YS6360                0.21      0.22      0.22      0.21         0.19
  YS6351YS6354                0.22      0.24      0.22      0.45         0.22
  YS6350YS6351                0.24      0.27      0.24      0.77         0.24
  YS6348YS6350                0.26      0.26      0.27      0.24         0.23
  YS6344YS6348                0.26      0.26      0.32      0.01         0.01
  YS6363YS6132                0.11      0.11      0.26      0.01         0.01
  YS6137YS6132                0.19      0.19      0.36      0.01         0.01
  YS6189YS6137                0.19      0.19      0.21      1.44         0.01
  YS6187YS6189                0.14      0.14      0.15      0.29         0.01
  YS6179YS6184                0.12      0.12      0.14      0.01         0.01
  YS6176YS6179                0.07      0.07      0.12      0.01         0.01
  YS6171YS6176                0.08      0.08      0.12      0.01         0.01
  YS6168YS6171                0.08      0.08      0.08      0.06         0.05
  YS6164YS6168                0.04      0.04      0.08      0.01         0.01
  YS6162YS6164                0.07      0.07      0.09      0.01         0.01
  YS6132YS6404                0.01      0.17      0.01      0.29         0.01
  YSB1106YSB1105              0.07      0.20      0.07      0.24         0.07
  YSB1109YSB1106              0.20      0.26      0.20      0.40         0.20
  YSB1112YSB1109              0.26      0.26      0.26      0.29         0.26
  YSB1115YSB1112              0.24      0.24      0.26      0.07         0.07
  YSB1118YSB1115              0.27      0.27      0.27      0.29         0.26
  YSB1121YSB1118              0.27      0.30      0.27      0.39         0.27
  YSB1124YSB1121              0.26      0.26      0.30      0.01         0.01
  YSB1105YSB1103              0.13      0.13      0.19      0.19         0.13
  YS02001748YS02001751        0.01      0.01      0.01      0.01         0.01
  YS02001751YS02001754        0.01      0.01      0.06      0.01         0.01
  YS02001754YS02001757        0.07      0.07      0.14      0.01         0.01
  YS02001882YS02001884        0.60      0.60      0.61      0.01         0.01
  YS02001884YS02001887        0.63      0.63      0.64      0.01         0.01
  YS02001890YS02001895        0.59      0.59      0.69      0.01         0.01
  YS02001895YS02001898        0.58      0.58      0.59      0.01         0.01
  YS02001898YS02001901        0.59      0.59      0.63      0.01         0.01
  YS02001901YS02001904        0.62      0.62      0.63      0.01         0.01
  YS02001904YS02001907        0.62      0.62      0.92      0.01         0.01
  YS02001887YS02001890        0.66      0.66      0.67      0.19         0.01
  YS02004309YS02004307        0.17      1.06      0.17      1.04         0.17
  YS02004319YS02004316        0.40      0.40      0.41      0.01         0.01
  YS02005376YS02005378        1.66      1.66      1.84      0.01         0.01
  YS02005378YS02005381        1.81      1.81      1.84      0.35         0.01
  YS02005381YS02005384        1.43      1.43      1.81      1.82         0.01
  YS02005598YS02005374        0.23      0.23      0.24      0.24         0.23
  YS02005602YS02005603        0.16      0.44      0.16      0.57         0.16
  YS02005603YS02005607        0.16      0.16      0.18      0.18         0.16
  YS02005618YS02005619        0.01      0.01      0.01      0.03         0.01
  YS02005621YS02005622        0.01      0.02      0.01      0.08         0.01
  YS02005624YS02005625        0.01      0.01      0.27      0.05         0.01
  YS02005630YS02005631        0.01      0.05      0.01      0.09         0.01
  YS02005633YS02005634        0.01      0.04      0.01      0.07         0.01
  YS02005636YS02005637        0.01      0.09      0.01      0.13         0.01
  YS02005639YS02005640        0.01      0.07      0.01      0.10         0.01
  YS02005627YS02005628        0.01      0.05      0.01      0.27         0.01
  YS02005644YS02005645        0.01      0.15      0.01      0.18         0.01
  YS02005650YS02005651        0.01      0.14      0.01      0.23         0.01
  YS02005653YS02005654        0.12      0.12      0.13      0.13         0.12
  YS02005654YS02005655        0.01      0.13      0.01      0.22         0.01
  YS02005658YS02005659        0.01      0.08      0.01      0.11         0.01
  YS02005661YS02005662        0.01      0.12      0.01      0.24         0.01
  YS02005664YS02005665        0.01      0.14      0.01      0.52         0.01
  YS02005667YS02005668        0.01      0.01      0.56      0.15         0.01
  YS02005647YS02005648        0.01      0.29      0.01      0.44         0.01
  YS02004312YS02004309        0.67      0.67      1.06      0.01         0.01
  YS02004314YS02004312        0.45      0.45      0.67      0.01         0.01
  YS02004316YS02004314        0.41      0.41      0.45      0.35         0.35
  YS02004320YS02004319        0.01      0.01      0.31      0.01         0.01
  YS6404YS6401                0.01      0.01      0.01      0.69         0.01
  YSB1132YSB1135              0.64      0.64      0.70      0.01         0.01
  YSB1135YSB1138              0.70      0.70      0.74      0.01         0.01
  YSB1138YSB1141              0.74      0.74      0.84      0.43         0.43
  YSB1141YSB1145              0.81      0.81      0.84      0.42         0.39
  YSB1148YSB1151              0.93      0.93      1.23      0.01         0.01
  YSB1151YSB1154              1.05      1.05      1.42      0.01         0.01
  YSB1154YSB6556              1.10      1.10      1.42      0.45         0.01
  YSB1128YSB1132              0.62      0.62      0.64      0.01         0.01
  YSB1145YSB1148              0.84      0.84      0.93      0.01         0.01
  YSB1198YSB1195              0.33      0.33      0.60      0.01         0.01
  YSB1195YSB1192              0.60      0.60      0.63      0.01         0.01
  YSB1192YSB1189              0.63      0.63      0.66      0.01         0.01
  YSB1186YSB1183              0.72      0.72      0.85      0.01         0.01
  YSB1183YSB1180              0.85      0.85      0.89      0.26         0.26
  YSB1180YSB1177              0.89      0.89      1.29      0.01         0.01
  YSB1177YSB1174              1.29      1.29      1.54      0.27         0.28
  YSB1174YSB1171              1.23      1.23      1.59      0.20         0.20
  YSB1171HS02004479           0.93      0.93      1.39      0.01         0.01
  HS02003001HS02003166        0.01      0.01      0.01      0.01         0.01
  YS02004307HS02004052        0.01      0.01      0.21      0.01         0.01
  HS02004881HS02006253        0.77      0.77      1.55      0.01         0.01
  WS0200404049WS6136          0.19      0.19      0.28      0.01         0.01
  HS02003125WS02003215        1.50      1.50      1.52      0.01         0.01
  YS02001793JiankangQianchi        0.01      0.01      2.02      0.01         0.01
  YS02001757CaochengTiaoxuchi        0.14      0.14      0.83      0.10         0.09
  WS02004041WS6409            1.18      1.18      1.27      1.28         1.18
  WSF200WS02003060            0.29      0.29      0.57      0.01         0.01
  HS02004053WS02004407        0.20      0.20      1.22      0.01         0.01
  HS02003036HS02003028        0.20      0.20      0.30      0.01         0.01
  
  
  ***************
  Pumping Summary
  ***************
  
  ---------------------------------------------------------------------------------------------------------
                                                  Min       Avg       Max     Total     Power    % Time Off
                        Percent   Number of      Flow      Flow      Flow    Volume     Usage    Pump Curve
  Pump                 Utilized   Start-Ups       LPS       LPS       LPS  10^6 ltr     Kw-hr    Low   High
  ---------------------------------------------------------------------------------------------------------
  CaochengSewagePump1     91.72           1      0.00    200.00    200.00     1.344     10.14    0.0    0.0
  CaochengSewagePump2     57.87           1      0.00    200.00    200.00     0.848      6.64    0.0    0.0
  CaochengRainPump1       54.64           1      0.00    683.00    683.00     2.734      4.60    0.0   31.2
  CaochengRainPump2        0.00           0      0.00      0.00      0.00     0.000      0.00    0.0    0.0
  JiankangSewagePump      73.31           1      0.00    300.00    300.00     1.611     24.99    0.0    0.0
  JiankangRainPump1       36.89           5      0.00   1000.00   1000.00     2.702     17.72    0.0    0.0
  JiankangRainPump2        0.00           0      0.00      0.00      0.00     0.000      0.00    0.0    0.0
  XierchiSewagePump1      91.78           1      0.00     95.00     95.00     0.639      3.95    0.0    0.0
  XierchiSewagePump2      76.23           1      0.00     95.00     95.00     0.530      3.11    0.0    0.0
  XierchiSewagePump3       0.00           0      0.00      0.00      0.00     0.000      0.00    0.0    0.0
  XierchiSewagePump4       0.00           0      0.00      0.00      0.00     0.000      0.00    0.0    0.0
  

  Analysis begun on:  Sun Oct 23 09:43:38 2022
  Analysis ended on:  Sun Oct 23 10:15:36 2022
  Total elapsed time: 00:31:58