
  EPA STORM WATER MANAGEMENT MODEL - VERSION 5.1 (Build 5.3.0.dev0)
  --------------------------------------------------------------

  WARNING 04: minimum elevation drop used for Conduit WS02004404WS02004405
  WARNING 03: negative offset ignored for Link YS02001904YS02001907
  
  *********************************************************
  NOTE: The summary statistics displayed in this report are
  based on results found at every computational time step,  
  not just on results from each reporting time step.
  *********************************************************
  
  ****************
  Analysis Options
  ****************
  Flow Units ............... LPS
  Process Models:
    Rainfall/Runoff ........ YES
    RDII ................... NO
    Snowmelt ............... NO
    Groundwater ............ NO
    Flow Routing ........... YES
    Ponding Allowed ........ NO
    Water Quality .......... NO
  Infiltration Method ...... HORTON
  Flow Routing Method ...... DYNWAVE
  Surcharge Method ......... EXTRAN
  Starting Date ............ 03/31/2017 00:00:00
  Ending Date .............. 03/31/2017 03:00:00
  Antecedent Dry Days ...... 8.0
  Report Time Step ......... 00:00:30
  Wet Time Step ............ 00:01:00
  Dry Time Step ............ 00:01:00
  Routing Time Step ........ 30.00 sec
  Variable Time Step ....... YES
  Maximum Trials ........... 8
  Number of Threads ........ 6
  Head Tolerance ........... 0.001500 m
  
  
  **************************        Volume         Depth
  Runoff Quantity Continuity     hectare-m            mm
  **************************     ---------       -------
  Total Precipitation ......        11.461        97.262
  Evaporation Loss .........         0.000         0.000
  Infiltration Loss ........         0.634         5.380
  Surface Runoff ...........         8.952        75.965
  LID Drainage .............         0.628         5.326
  Final Storage ............         1.270        10.775
  Continuity Error (%) .....        -0.189
  
  
  **************************        Volume        Volume
  Flow Routing Continuity        hectare-m      10^6 ltr
  **************************     ---------     ---------
  Dry Weather Inflow .......         0.171         1.707
  Wet Weather Inflow .......         9.542        95.425
  Groundwater Inflow .......         0.000         0.000
  RDII Inflow ..............         0.000         0.000
  External Inflow ..........         0.033         0.332
  External Outflow .........         5.112        51.123
  Flooding Loss ............         4.365        43.651
  Evaporation Loss .........         0.000         0.000
  Exfiltration Loss ........         0.000         0.000
  Initial Stored Volume ....         0.303         3.031
  Final Stored Volume ......         0.600         6.003
  Continuity Error (%) .....        -0.282
  
  
  *************************
  Highest Continuity Errors
  *************************
  Node WS02005193 (58.08%)
  Node YS02001884 (29.92%)
  Node YS02001774 (8.16%)
  Node YS02004320 (6.13%)
  Node YS6162 (5.85%)
  
  
  ***************************
  Time-Step Critical Elements
  ***************************
  Link YS02005655YS02005657 (48.13%)
  Link WS02006252WS02006251 (21.59%)
  Link WS02004041WS6409 (9.95%)
  Link WS02006280WS02006229 (2.70%)
  Link WS02003073WS02003076 (2.52%)
  
  
  ********************************
  Highest Flow Instability Indexes
  ********************************
  Link WS02006238WS02006235 (79)
  Link WS02003215WS02003116 (73)
  Link WS02003200WS02003201 (71)
  Link WS02004404WS02004405 (70)
  Link WS02003203WS02003091 (69)
  
  
  *************************
  Routing Time Step Summary
  *************************
  Minimum Time Step           :     0.50 sec
  Average Time Step           :     0.95 sec
  Maximum Time Step           :    30.00 sec
  Percent in Steady State     :    -0.00
  Average Iterations per Step :     6.65
  Percent Not Converging      :    39.02
  
  
  ***************************
  Subcatchment Runoff Summary
  ***************************
  
  ------------------------------------------------------------------------------------------------------------------------------
                            Total      Total      Total      Total     Imperv       Perv      Total       Total     Peak  Runoff
                           Precip      Runon       Evap      Infil     Runoff     Runoff     Runoff      Runoff   Runoff   Coeff
  Subcatchment                 mm         mm         mm         mm         mm         mm         mm    10^6 ltr      LPS
  ------------------------------------------------------------------------------------------------------------------------------
  sub0                      97.26       0.00       0.00       0.74      88.10       5.76      93.86        0.08    59.55   0.965
  sub1                      97.26       0.00       0.00       5.81      63.18       6.74      78.80        0.52   331.71   0.810
  sub2                      97.26       0.00       0.00       6.39      49.60      22.29      77.44        0.72   380.99   0.796
  sub3                      97.26       0.00       0.00       5.66      51.48      21.77      77.19        1.74   853.03   0.794
  sub4                      97.26       0.00       0.00       3.20      71.83       7.59      83.32        1.74   929.63   0.857
  sub5                      97.26       0.00       0.00       6.32      62.45       4.09      76.97        0.87   548.53   0.791
  sub6                      97.26       0.00       0.00       5.32      66.25       4.35      79.17        2.05  1235.72   0.814
  sub7                      97.26       0.00       0.00       2.45      78.95       6.77      88.56        0.30   213.57   0.911
  sub8                      97.26       0.00       0.00       1.68      81.99       7.03      90.40        0.58   402.94   0.929
  sub9                      97.26       0.00       0.00       2.00      80.54       6.90      89.44        0.43   297.14   0.920
  sub10                     97.26       0.00       0.00       4.41      70.42       5.32      82.44        0.91   594.85   0.848
  sub11                     97.26       0.00       0.00       3.55      74.49       5.63      85.20        0.99   685.55   0.876
  sub12                     97.26       0.00       0.00       6.62      59.80       7.71      77.64        0.68   476.24   0.798
  sub13                     97.26       0.00       0.00       4.29      59.22      24.76      85.54        1.02   634.40   0.879
  sub14                     97.26       0.00       0.00       3.41      74.48       6.38      85.52        0.81   552.16   0.879
  sub15                     97.26       0.00       0.00       6.38      53.36      18.80      79.03        1.36   824.67   0.813
  sub16                     97.26       0.00       0.00       6.07      53.60      21.99      81.23        0.85   567.93   0.835
  sub17                     97.26       0.00       0.00       7.96      47.03      18.51      75.43        0.65   416.22   0.776
  sub18                     97.26       0.00       0.00       2.91      77.15       6.61      87.48        0.70   506.10   0.899
  sub19                     97.26       0.00       0.00       7.81      47.92      17.99      75.67        0.24   153.69   0.778
  sub20                     97.26       0.00       0.00      12.15      36.86       3.16      61.17        0.43   242.97   0.629
  sub21                     97.26       0.00       0.00       3.91      71.62       8.43      85.14        0.43   313.36   0.875
  sub22                     97.26       0.00       0.00       5.43      50.43      30.01      82.54        5.21  3053.95   0.849
  sub23                     97.26       0.00       0.00       5.70      52.77      25.20      81.99        3.91  2422.79   0.843
  sub24                     97.26       0.00       0.00       4.66      67.57       9.46      83.20        2.98  2121.44   0.855
  sub25                     97.26       0.00       0.00       0.74      88.24       5.77      94.01        1.22   971.38   0.967
  sub26                     97.26       0.00       0.00       7.07      54.11      14.65      78.09        1.11   839.77   0.803
  sub27                     97.26       0.00       0.00       4.19      71.07       6.09      83.29        1.20   802.91   0.856
  sub28                     97.26       0.00       0.00       4.10      71.81       5.42      83.36        1.31   866.79   0.857
  sub29                     97.26       0.00       0.00       5.48      65.10       4.92      78.73        1.27   755.58   0.810
  sub30                     97.26       0.00       0.00       4.51      70.85       5.34      83.08        1.87  1360.39   0.854
  sub31                     97.26       0.00       0.00       6.20      60.19      10.59      79.49        1.69  1215.34   0.817
  sub32                     97.26       0.00       0.00       5.18      67.58       5.10      80.83        1.61  1115.59   0.831
  sub33                     97.26       0.00       0.00       4.71      67.97       8.76      83.18        1.52  1113.53   0.855
  sub34                     97.26       0.00       0.00       7.44      40.70      33.59      79.58        1.78  1163.75   0.818
  sub35                     97.26       0.00       0.00       4.24      72.69       5.48      84.55        0.29   245.33   0.869
  sub36                     97.26       0.00       0.00       6.50      57.11      13.80      79.41        0.69   512.82   0.816
  sub37                     97.26       0.00       0.00       6.25      50.46      27.26      82.57        0.63   463.58   0.849
  sub38                     97.26       0.00       0.00       6.87      50.22      23.02      80.25        1.52  1159.86   0.825
  sub39                     97.26       0.00       0.00       4.91      69.48       5.24      82.35        0.88   681.91   0.847
  sub40                     97.26       0.00       0.00       3.54      75.54       5.69      86.31        1.00   803.93   0.887
  sub41                     97.26       0.00       0.00       4.23      68.97      11.30      85.27        1.64  1248.15   0.877
  sub42                     97.26       0.00       0.00       3.09      77.05       6.60      87.69        0.88   699.15   0.902
  sub43                     97.26       0.00       0.00       4.00      58.59      29.67      88.27        0.72   496.13   0.908
  sub44                     97.26       0.00       0.00       5.98      64.13       4.20      78.13        0.88   576.60   0.803
  sub45                     97.26       0.00       0.00       6.89      56.84       9.95      76.87        1.41   930.63   0.790
  sub46                     97.26       0.00       0.00       7.62      32.67      44.64      79.95        0.56   329.59   0.822
  sub47                     97.26       0.00       0.00       6.50      61.86       4.67      77.16        0.59   400.81   0.793
  sub48                     97.26       0.00       0.00       2.74      77.73       6.66      87.78        0.67   478.81   0.902
  sub49                     97.26       0.00       0.00       5.36      66.56       5.03      80.08        0.73   489.72   0.823
  sub50                     97.26       0.00       0.00       4.49      70.39       5.32      82.55        0.58   394.00   0.849
  sub51                     97.26       0.00       0.00       2.92      77.57       5.85      87.33        0.41   300.29   0.898
  sub52                     97.26       0.00       0.00       5.47      66.40       4.35      79.60        0.86   572.43   0.818
  sub53                     97.26       0.00       0.00       4.73      69.55       5.25      82.10        0.83   579.25   0.844
  sub54                     97.26       0.00       0.00       6.03      63.64       4.17      77.70        0.46   291.21   0.799
  sub55                     97.26       0.00       0.00       3.30      75.19       5.68      85.50        0.68   453.53   0.879
  sub56                     97.26       0.00       0.00       3.30      69.48      13.57      85.65        1.22   727.61   0.881
  sub57                     97.26       0.00       0.00       3.26      64.22      23.21      87.44        0.57   344.85   0.899
  sub58                     97.26       0.00       0.00       8.65      23.61      45.19      71.60        2.65  1141.84   0.736
  sub59                     97.26       0.00       0.00       9.18      19.81      42.08      65.11        1.49   559.62   0.669
  sub60                     97.26       0.00       0.00       3.60      72.64       8.54      85.68        1.13   788.98   0.881
  sub61                     97.26       0.00       0.00       5.46      62.88      11.02      81.13        1.49  1026.90   0.834
  sub62                     97.26       0.00       0.00       4.43      70.23       5.31      82.27        2.25  1455.94   0.846
  sub67                     97.26       0.00       0.00       6.76      60.34       4.56      76.01        1.41   902.82   0.781
  sub68                     97.26       0.00       0.00       3.82      70.59       9.85      85.01        2.34  1574.82   0.874
  sub71                     97.26       0.00       0.00       3.25      74.59       5.64      84.75        2.22  1361.63   0.871
  sub72                     97.26       0.00       0.00       4.76      67.91       4.47      79.89        1.10   622.59   0.821
  sub73                     97.26       0.00       0.00       2.21      74.99      17.06      92.05        0.09    71.13   0.946
  sub74                     97.26       0.00       0.00       3.37      64.52      25.64      90.16        0.15   110.12   0.927
  sub75                     97.26       0.00       0.00       3.47      65.31      23.77      89.75        0.20   153.51   0.923
  sub76                     97.26       0.00       0.00       3.88      69.49      13.09      86.52        0.21   160.22   0.890
  sub77                     97.26       0.00       0.00       3.20      72.88      12.83      88.49        0.14   109.83   0.910
  sub78                     97.26       0.00       0.00       7.63      55.48       7.15      74.72        0.21   140.67   0.768
  sub79                     97.26       0.00       0.00       5.59      59.60      15.97      81.87        0.21   148.91   0.842
  sub80                     97.26       0.00       0.00       4.28      60.51      25.10      87.37        0.26   188.98   0.898
  sub81                     97.26       0.00       0.00       4.87      56.13      27.45      85.76        0.26   183.68   0.882
  sub82                     97.26       0.00       0.00       4.99      55.77      27.41      85.64        0.26   184.58   0.881
  sub83                     97.26       0.00       0.00       5.37      53.99      27.79      84.85        0.29   207.18   0.872
  sub84                     97.26       0.00       0.00       4.98      56.68      25.38      84.91        0.46   316.68   0.873
  sub85                     97.26       0.00       0.00       7.38      52.47      14.07      76.52        0.34   230.28   0.787
  sub86                     97.26       0.00       0.00       4.06      64.68      19.20      86.64        0.42   300.30   0.891
  sub87                     97.26       0.00       0.00       3.68      61.56      27.73      89.28        0.27   194.81   0.918
  sub88                     97.26       0.00       0.00       3.58      62.54      27.04      89.57        0.27   201.47   0.921
  sub89                     97.26       0.00       0.00       3.26      65.54      24.95      90.48        0.24   185.69   0.930
  sub90                     97.26       0.00       0.00       2.84      69.22      21.73      90.95        0.22   171.86   0.935
  sub91                     97.26       0.00       0.00       2.84      69.47      21.93      91.41        0.17   133.89   0.940
  sub92                     97.26       0.00       0.00       3.26      65.80      25.25      91.05        0.14   114.06   0.936
  sub93                     97.26       0.00       0.00       3.26      65.83      25.27      91.10        0.16   138.99   0.937
  sub94                     97.26       0.00       0.00       3.26      65.67      25.10      90.77        0.20   157.20   0.933
  sub95                     97.26       0.00       0.00       3.05      67.62      23.57      91.19        0.14   112.57   0.938
  sub96                     97.26       0.00       0.00       2.31      74.48      18.07      92.55        0.17   149.76   0.952
  sub97                     97.26       0.00       0.00       6.90      36.06      47.90      85.23        0.20   162.28   0.876
  sub98                     97.26       0.00       0.00       7.73      26.42      55.56      82.43        0.27   168.55   0.848
  sub99                     97.26       0.00       0.00       8.31      20.03      58.49      78.52        0.28   137.93   0.807
  sub100                    97.26       0.00       0.00       8.31      19.98      55.80      75.78        0.27   118.77   0.779
  sub101                    97.26       0.00       0.00       8.31      19.98      55.52      75.49        0.25   112.86   0.776
  sub102                    97.26       0.00       0.00       7.99      22.76      51.40      74.16        0.22    96.37   0.762
  sub103                    97.26       0.00       0.00       8.20      20.86      51.53      72.39        0.34   141.63   0.744
  sub104                    97.26       0.00       0.00       8.20      20.85      50.94      71.79        0.38   153.13   0.738
  sub105                    97.26       0.00       0.00       8.52      18.04      52.83      70.87        0.40   157.92   0.729
  sub106                    97.26       0.00       0.00       8.31      19.95      53.86      73.82        0.38   159.55   0.759
  sub107                    97.26       0.00       0.00       8.72      17.79      56.40      74.82        0.53   232.44   0.769
  sub108                    97.26       0.00       0.00       8.78      16.97      60.35      77.79        0.72   360.24   0.800
  sub109                    97.26       0.00       0.00       7.79      31.62      45.27      79.74        1.14   674.32   0.820
  sub110                    97.26       0.00       0.00       5.79      61.31      11.53      80.58        1.69  1200.30   0.828
  sub111                    97.26       0.00       0.00       6.05      56.99      16.98      80.87        0.69   490.27   0.831
  sub112                    97.26       0.00       0.00       4.76      64.35      14.60      84.10        0.66   484.60   0.865
  sub113                    97.26       0.00       0.00       2.63      76.34      10.69      89.28        0.62   464.09   0.918
  sub114                    97.26       0.00       0.00       2.58      77.03       9.92      89.29        0.59   445.88   0.918
  sub115                    97.26       0.00       0.00       3.61      73.02       8.59      86.13        0.63   468.20   0.886
  sub116                    97.26       0.00       0.00       6.66      48.21      26.54      80.31        0.15    97.60   0.826
  sub117                    97.26       0.00       0.00       7.14      46.17      26.67      79.29        0.36   242.16   0.815
  

  ***********************
  LID Performance Summary
  ***********************

  --------------------------------------------------------------------------------------------------------------------
                                         Total      Evap     Infil   Surface    Drain    Initial     Final  Continuity
                                        Inflow      Loss      Loss   Outflow   Outflow   Storage   Storage       Error
  Subcatchment      LID Control             mm        mm        mm        mm        mm        mm        mm           %
  --------------------------------------------------------------------------------------------------------------------
  sub1              PermeablePavement     97.26      0.00     20.50      0.00     36.91      0.00     40.42       -0.59
  sub2              PermeablePavement     97.26      0.00     20.50      0.00     36.91      0.00     40.42       -0.59
  sub3              PermeablePavement     97.26      0.00     20.50      0.00     36.91      0.00     40.42       -0.59
  sub4              PermeablePavement     97.26      0.00     20.50      0.00     36.91      0.00     40.42       -0.59
  sub5              PermeablePavement     97.26      0.00     20.50      0.00     36.91      0.00     40.42       -0.59
  sub6              PermeablePavement     97.26      0.00     20.50      0.00     36.91      0.00     40.42       -0.59
  sub7              PermeablePavement     97.26      0.00     20.50      0.00     36.91      0.00     40.42       -0.59
  sub8              PermeablePavement     97.26      0.00     20.50      0.00     36.91      0.00     40.42       -0.59
  sub9              PermeablePavement     97.26      0.00     20.50      0.00     36.91      0.00     40.42       -0.59
  sub10             PermeablePavement     97.26      0.00     20.50      0.00     36.91      0.00     40.42       -0.59
  sub11             PermeablePavement     97.26      0.00     20.50      0.00     36.91      0.00     40.42       -0.59
  sub12             PermeablePavement     97.26      0.00     20.50      0.00     36.91      0.00     40.42       -0.59
  sub13             PermeablePavement     97.26      0.00     20.50      0.00     36.91      0.00     40.42       -0.59
  sub14             PermeablePavement     97.26      0.00     20.50      0.00     36.91      0.00     40.42       -0.59
  sub15             PermeablePavement     97.26      0.00     20.50      0.00     36.91      0.00     40.42       -0.59
  sub16             PermeablePavement     97.26      0.00     20.50      0.00     36.91      0.00     40.42       -0.59
  sub17             PermeablePavement     97.26      0.00     20.50      0.00     36.91      0.00     40.42       -0.59
  sub18             PermeablePavement     97.26      0.00     20.50      0.00     36.91      0.00     40.42       -0.59
  sub19             PermeablePavement     97.26      0.00     20.50      0.00     36.91      0.00     40.42       -0.59
  sub20             PermeablePavement     97.26      0.00     20.50      0.00     36.91      0.00     40.42       -0.59
  sub20             PermeablePavement     97.26      0.00     20.50      0.00     36.91      0.00     40.42       -0.59
  sub21             PermeablePavement     97.26      0.00     20.50      0.00     36.91      0.00     40.42       -0.59
  sub22             PermeablePavement     97.26      0.00     20.50      0.00     36.91      0.00     40.42       -0.59
  sub23             PermeablePavement     97.26      0.00     20.50      0.00     36.91      0.00     40.42       -0.59
  sub24             PermeablePavement     97.26      0.00     20.50      0.00     36.91      0.00     40.42       -0.59
  sub26             PermeablePavement     97.26      0.00     20.50      0.00     36.91      0.00     40.42       -0.59
  sub27             PermeablePavement     97.26      0.00     20.50      0.00     36.91      0.00     40.42       -0.59
  sub28             PermeablePavement     97.26      0.00     20.50      0.00     36.91      0.00     40.42       -0.59
  sub29             PermeablePavement     97.26      0.00     20.50      0.00     36.91      0.00     40.42       -0.59
  sub30             PermeablePavement     97.26      0.00     20.50      0.00     36.91      0.00     40.42       -0.59
  sub31             PermeablePavement     97.26      0.00     20.50      0.00     36.91      0.00     40.42       -0.59
  sub32             PermeablePavement     97.26      0.00     20.50      0.00     36.91      0.00     40.42       -0.59
  sub33             PermeablePavement     97.26      0.00     20.50      0.00     36.91      0.00     40.42       -0.59
  sub34             PermeablePavement     97.26      0.00     20.50      0.00     36.91      0.00     40.42       -0.59
  sub35             PermeablePavement     97.26      0.00     20.50      0.00     36.91      0.00     40.42       -0.59
  sub36             PermeablePavement     97.26      0.00     20.50      0.00     36.91      0.00     40.42       -0.59
  sub37             PermeablePavement     97.26      0.00     20.50      0.00     36.91      0.00     40.42       -0.59
  sub38             PermeablePavement     97.26      0.00     20.50      0.00     36.91      0.00     40.42       -0.59
  sub39             PermeablePavement     97.26      0.00     20.50      0.00     36.91      0.00     40.42       -0.59
  sub40             PermeablePavement     97.26      0.00     20.50      0.00     36.91      0.00     40.42       -0.59
  sub41             PermeablePavement     97.26      0.00     20.50      0.00     36.91      0.00     40.42       -0.59
  sub42             PermeablePavement     97.26      0.00     20.50      0.00     36.91      0.00     40.42       -0.59
  sub44             PermeablePavement     97.26      0.00     20.50      0.00     36.91      0.00     40.42       -0.59
  sub45             PermeablePavement     97.26      0.00     20.50      0.00     36.91      0.00     40.42       -0.59
  sub46             PermeablePavement     97.26      0.00     20.50      0.00     36.91      0.00     40.42       -0.59
  sub47             PermeablePavement     97.26      0.00     20.50      0.00     36.91      0.00     40.42       -0.59
  sub48             PermeablePavement     97.26      0.00     20.50      0.00     36.91      0.00     40.42       -0.59
  sub49             PermeablePavement     97.26      0.00     20.50      0.00     36.91      0.00     40.42       -0.59
  sub50             PermeablePavement     97.26      0.00     20.50      0.00     36.91      0.00     40.42       -0.59
  sub51             PermeablePavement     97.26      0.00     20.50      0.00     36.91      0.00     40.42       -0.59
  sub52             PermeablePavement     97.26      0.00     20.50      0.00     36.91      0.00     40.42       -0.59
  sub53             PermeablePavement     97.26      0.00     20.50      0.00     36.91      0.00     40.42       -0.59
  sub54             PermeablePavement     97.26      0.00     20.50      0.00     36.91      0.00     40.42       -0.59
  sub55             PermeablePavement     97.26      0.00     20.50      0.00     36.91      0.00     40.42       -0.59
  sub56             PermeablePavement     97.26      0.00     20.50      0.00     36.91      0.00     40.42       -0.59
  sub58             PermeablePavement     97.26      0.00     20.50      0.00     36.91      0.00     40.42       -0.59
  sub59             PermeablePavement     97.26      0.00     20.50      0.00     36.91      0.00     40.42       -0.59
  sub60             PermeablePavement     97.26      0.00     20.50      0.00     36.91      0.00     40.42       -0.59
  sub61             PermeablePavement     97.26      0.00     20.50      0.00     36.91      0.00     40.42       -0.59
  sub62             PermeablePavement     97.26      0.00     20.50      0.00     36.91      0.00     40.42       -0.59
  sub67             PermeablePavement     97.26      0.00     20.50      0.00     36.91      0.00     40.42       -0.59
  sub68             PermeablePavement     97.26      0.00     20.50      0.00     36.91      0.00     40.42       -0.59
  sub71             PermeablePavement     97.26      0.00     20.50      0.00     36.91      0.00     40.42       -0.59
  sub72             PermeablePavement     97.26      0.00     20.50      0.00     36.91      0.00     40.42       -0.59
  sub75             PermeablePavement     97.26      0.00     20.50      0.00     36.91      0.00     40.42       -0.59
  sub76             PermeablePavement     97.26      0.00     20.50      0.00     36.91      0.00     40.42       -0.59
  sub77             PermeablePavement     97.26      0.00     20.50      0.00     36.91      0.00     40.42       -0.59
  sub78             PermeablePavement     97.26      0.00     20.50      0.00     36.91      0.00     40.42       -0.59
  sub79             PermeablePavement     97.26      0.00     20.50      0.00     36.91      0.00     40.42       -0.59
  sub80             PermeablePavement     97.26      0.00     20.50      0.00     36.91      0.00     40.42       -0.59
  sub81             PermeablePavement     97.26      0.00     20.50      0.00     36.91      0.00     40.42       -0.59
  sub82             PermeablePavement     97.26      0.00     20.50      0.00     36.91      0.00     40.42       -0.59
  sub83             PermeablePavement     97.26      0.00     20.50      0.00     36.91      0.00     40.42       -0.59
  sub84             PermeablePavement     97.26      0.00     20.50      0.00     36.91      0.00     40.42       -0.59
  sub85             PermeablePavement     97.26      0.00     20.50      0.00     36.91      0.00     40.42       -0.59
  sub86             PermeablePavement     97.26      0.00     20.50      0.00     36.91      0.00     40.42       -0.59
  sub97             PermeablePavement     97.26      0.00     20.50      0.00     36.91      0.00     40.42       -0.59
  sub98             PermeablePavement     97.26      0.00     20.50      0.00     36.91      0.00     40.42       -0.59
  sub107            PermeablePavement     97.26      0.00     20.50      0.00     36.91      0.00     40.42       -0.59
  sub108            PermeablePavement     97.26      0.00     20.50      0.00     36.91      0.00     40.42       -0.59
  sub109            PermeablePavement     97.26      0.00     20.50      0.00     36.91      0.00     40.42       -0.59
  sub110            PermeablePavement     97.26      0.00     20.50      0.00     36.91      0.00     40.42       -0.59
  sub111            PermeablePavement     97.26      0.00     20.50      0.00     36.91      0.00     40.42       -0.59
  sub112            PermeablePavement     97.26      0.00     20.50      0.00     36.91      0.00     40.42       -0.59
  sub113            PermeablePavement     97.26      0.00     20.50      0.00     36.91      0.00     40.42       -0.59
  sub114            PermeablePavement     97.26      0.00     20.50      0.00     36.91      0.00     40.42       -0.59
  sub115            PermeablePavement     97.26      0.00     20.50      0.00     36.91      0.00     40.42       -0.59
  sub116            PermeablePavement     97.26      0.00     20.50      0.00     36.91      0.00     40.42       -0.59
  sub117            PermeablePavement     97.26      0.00     20.50      0.00     36.91      0.00     40.42       -0.59
  
  ******************
  Node Depth Summary
  ******************
  
  ---------------------------------------------------------------------------------
                                 Average  Maximum  Maximum  Time of Max    Reported
                                   Depth    Depth      HGL   Occurrence   Max Depth
  Node                 Type       Meters   Meters   Meters  days hr:min      Meters
  ---------------------------------------------------------------------------------
  WS02001211           JUNCTION     1.04     2.35     7.19     0  00:46        1.78
  WS02001212           JUNCTION     0.81     1.95     7.02     0  00:47        1.56
  WS02001213           JUNCTION     1.05     2.20     6.96     0  00:47        1.85
  WS02003069           JUNCTION     1.00     1.69     6.27     0  00:51        1.68
  WS02003072           JUNCTION     1.06     1.59     5.96     0  00:51        1.58
  WS02003073           JUNCTION     1.28     1.71     5.77     0  00:51        1.70
  WS02003076           JUNCTION     1.01     1.36     5.58     0  00:51        1.36
  WS02003060           JUNCTION     0.89     1.68     6.61     0  00:51        1.66
  WS02003066           JUNCTION     0.53     1.16     6.72     0  00:51        1.16
  WS02003059           JUNCTION     1.12     1.96     6.65     0  00:47        1.93
  WS02003115           JUNCTION     2.05     2.76     9.62     0  00:33        2.73
  WS02003116           JUNCTION     2.20     3.03     9.74     0  00:24        2.94
  WS02003118           JUNCTION     2.18     2.90     9.52     0  00:23        2.90
  WS02003215           JUNCTION     2.07     2.80     9.66     0  00:33        2.80
  WS02003110           JUNCTION     1.69     2.35     9.61     0  00:50        2.34
  WS02003111           JUNCTION     1.81     2.35     9.44     0  00:33        2.35
  WS02005155           JUNCTION     1.66     2.57     9.87     0  00:28        2.46
  WS02005154           JUNCTION     1.42     2.35     9.99     0  00:51        2.34
  WS02005193           JUNCTION     1.54     3.22    11.04     0  00:45        3.05
  WS02005196           JUNCTION     1.51     3.31    11.16     0  00:27        3.11
  WS02003067           JUNCTION     0.86     1.48     6.80     0  00:51        1.48
  WS02004401           JUNCTION     1.53     2.56     8.56     0  00:49        2.46
  WS02004402           JUNCTION     1.52     2.58     8.54     0  00:49        2.47
  WS02004403           JUNCTION     1.51     2.58     8.51     0  00:49        2.47
  WS02004404           JUNCTION     1.55     2.63     8.48     0  00:49        2.53
  WS02004406           JUNCTION     1.49     2.60     8.43     0  00:49        2.49
  WS02004409           JUNCTION     1.26     2.41     8.18     0  00:49        2.30
  WS02004410           JUNCTION     1.15     2.10     7.82     0  00:49        2.09
  WS02004411           JUNCTION     1.06     1.89     7.57     0  00:51        1.88
  WS02004412           JUNCTION     0.96     1.65     7.29     0  00:51        1.63
  WS02004413           JUNCTION     0.99     1.55     7.02     0  00:51        1.54
  WS02004405           JUNCTION     1.53     2.61     8.46     0  00:49        2.51
  WS02006109           JUNCTION     2.03     2.64     9.26     0  00:43        2.64
  WS02006110           JUNCTION     1.83     2.48     9.07     0  00:53        2.48
  WS02006111           JUNCTION     1.23     2.00     8.70     0  00:56        1.99
  WS02006112           JUNCTION     1.84     2.68     8.56     0  00:00        2.68
  WS02006113           JUNCTION     1.31     2.00     8.89     0  00:54        1.99
  WS02006115           JUNCTION     1.50     2.44     8.58     0  00:49        2.38
  WS02006116           JUNCTION     1.55     2.53     8.57     0  00:49        2.45
  WS02006230           JUNCTION     2.09     2.65     9.39     0  00:38        2.65
  WS02006231           JUNCTION     1.68     2.19     9.31     0  01:39        2.19
  WS02006232           JUNCTION     1.72     2.18     9.22     0  00:38        2.18
  WS02006234           JUNCTION     1.54     1.96     9.12     0  00:37        1.96
  WS02006235           JUNCTION     1.52     1.93     9.10     0  01:23        1.93
  WS02006238           JUNCTION     1.53     1.94     9.08     0  00:39        1.93
  WS02006240           JUNCTION     1.30     1.63     8.92     0  00:41        1.62
  WS02006242           JUNCTION     1.27     1.55     8.82     0  00:25        1.55
  WS02006243           JUNCTION     1.11     1.48     8.90     0  00:26        1.37
  WS02006245           JUNCTION     1.04     1.27     8.75     0  01:58        1.27
  WS02006247           JUNCTION     1.01     1.23     8.73     0  00:41        1.23
  WS02006248           JUNCTION     0.92     1.10     8.69     0  00:26        1.10
  WS02006249           JUNCTION     0.92     1.09     8.69     0  00:26        1.09
  WS02006239           JUNCTION     1.42     1.79     9.00     0  01:23        1.78
  WS02006251           JUNCTION     1.41     2.21     9.88     0  00:45        2.20
  WS02006252           JUNCTION     0.97     1.50     9.74     0  00:45        1.50
  WS02006253           JUNCTION     1.71     3.27    10.92     0  00:45        3.18
  WS02006256           JUNCTION     1.89     2.35     9.28     0  00:16        2.35
  WS02004138           JUNCTION     0.12     0.14     7.39     0  00:33        0.14
  WS02004139           JUNCTION     0.97     2.27     7.18     0  00:47        1.71
  WS02004407           JUNCTION     0.91     2.15     8.47     0  00:49        1.96
  WS02006228           JUNCTION     2.26     3.03     9.68     0  00:56        3.02
  WS02006229           JUNCTION     2.37     3.23     9.92     0  00:56        3.22
  WS02006280           JUNCTION     1.08     1.75    10.02     0  00:51        1.74
  WS02006284           JUNCTION     1.23     1.95    10.35     0  00:48        1.94
  WS02006287           JUNCTION     0.97     1.74    10.70     0  00:49        1.74
  WS02003091           JUNCTION     2.99     4.43    10.23     0  00:00        3.91
  WS02003203           JUNCTION     2.93     3.83     9.82     0  00:00        3.83
  WS6145               JUNCTION     0.45     2.35    10.46     0  00:50        2.33
  WS6147               JUNCTION     0.38     2.27    10.54     0  00:50        2.17
  WS6150               JUNCTION     0.37     2.24    10.57     0  00:50        2.14
  WS6152               JUNCTION     0.38     2.20    10.54     0  00:50        2.14
  WS6155               JUNCTION     0.34     2.10    10.50     0  00:50        2.10
  WS6156               JUNCTION     0.32     2.05    10.52     0  00:50        2.05
  WS6136               JUNCTION     0.40     1.90    10.85     0  00:50        1.90
  WS6140               JUNCTION     0.51     2.46    10.40     0  00:51        2.46
  WS6142               JUNCTION     0.45     2.35    10.42     0  00:51        2.33
  WS6325               JUNCTION     0.74     2.74    10.39     0  00:51        2.73
  WS6327               JUNCTION     0.60     2.58    10.40     0  00:51        2.57
  WS6329               JUNCTION     0.54     2.52    10.40     0  00:51        2.50
  WS6332               JUNCTION     0.46     2.51    10.55     0  00:49        2.35
  WS6158               JUNCTION     0.30     2.05    10.59     0  00:50        2.05
  WS6335               JUNCTION     0.45     2.60    10.67     0  00:49        2.31
  WS6338               JUNCTION     0.40     2.55    10.75     0  00:49        2.19
  WS6340               JUNCTION     0.35     2.50    10.84     0  00:49        2.05
  WS6342               JUNCTION     0.28     2.50    11.10     0  00:49        1.78
  WS6135               JUNCTION     0.90     2.89    10.39     0  00:51        2.88
  WS6396               JUNCTION     0.57     2.02     9.57     0  00:51        2.01
  WS6399               JUNCTION     0.35     1.37     8.81     0  00:51        1.36
  WS02003082           JUNCTION     1.43     1.93     7.00     0  00:55        1.92
  WS02003077           JUNCTION     0.51     0.84     5.85     0  00:51        0.84
  WS02003080           JUNCTION     0.93     1.30     6.24     0  00:51        1.30
  WS02003083           JUNCTION     1.83     2.41     7.44     0  00:51        2.41
  WS02003084           JUNCTION     1.97     2.60     7.70     0  00:56        2.59
  WS02003085           JUNCTION     2.06     2.72     7.89     0  00:54        2.71
  WS02003086           JUNCTION     2.31     3.02     8.22     0  00:52        3.01
  WS02003087           JUNCTION     2.59     3.36     8.57     0  00:54        3.35
  WS02003088           JUNCTION     2.79     4.14     9.43     0  00:00        4.07
  WS02003089           JUNCTION     2.93     4.34     9.80     0  00:00        4.02
  WS02003090           JUNCTION     3.15     4.12     9.55     0  00:00        4.05
  WS02003081           JUNCTION     1.16     1.61     6.66     0  00:51        1.61
  WS02003122           JUNCTION     2.36     3.30     9.67     0  00:23        3.10
  WS02003187           JUNCTION     2.38     3.11     9.44     0  00:23        3.11
  WS02003188           JUNCTION     2.35     2.97     9.23     0  00:46        2.97
  WS02003190           JUNCTION     2.32     2.84     9.04     0  00:30        2.84
  WS02003193           JUNCTION     2.32     2.85     9.09     0  00:22        2.85
  WS02003195           JUNCTION     2.35     2.93     9.18     0  00:22        2.93
  WS02003196           JUNCTION     2.48     3.13     9.31     0  00:50        3.13
  WS02003198           JUNCTION     2.52     3.22     9.40     0  00:50        3.20
  WS02003200           JUNCTION     2.29     2.99     9.42     0  00:30        2.93
  WS02003201           JUNCTION     2.56     3.22     9.36     0  00:30        3.22
  WS02003202           JUNCTION     2.72     4.17    10.23     0  00:00        3.48
  WS02004041           JUNCTION     0.68     0.98     5.34     0  00:52        0.98
  WSA6400              JUNCTION     1.22     2.42     8.26     0  00:51        2.41
  WS6400               JUNCTION     0.54     1.69     8.35     0  00:51        1.68
  WSF208               JUNCTION     0.92     1.95     8.04     0  00:51        1.94
  WSF207               JUNCTION     0.80     1.69     7.83     0  00:51        1.68
  WSF206               JUNCTION     0.88     1.74     7.67     0  00:51        1.74
  WSF205               JUNCTION     0.80     1.62     7.52     0  00:51        1.60
  WSF204               JUNCTION     1.32     2.17     7.32     0  00:51        2.16
  WSF203               JUNCTION     0.68     1.37     7.07     0  00:51        1.36
  WSF202               JUNCTION     0.59     1.20     6.92     0  00:51        1.19
  WSF201               JUNCTION     0.50     1.04     6.77     0  00:51        1.03
  WSF200               JUNCTION     0.68     1.45     6.68     0  00:51        1.45
  HS02004901           JUNCTION     0.80     1.42    11.24     0  00:43        1.42
  HS02004881           JUNCTION     0.66     2.15    11.18     0  00:45        1.91
  HS02004876           JUNCTION     0.79     2.16    11.19     0  00:51        2.15
  HS02004870           JUNCTION     0.68     2.10    11.39     0  00:45        2.05
  HS02004862           JUNCTION     0.69     2.00    11.38     0  00:45        2.00
  HS02004856           JUNCTION     0.72     2.07    11.50     0  00:45        2.03
  HS02004852           JUNCTION     0.66     2.12    11.63     0  00:45        1.98
  HS02004848           JUNCTION     0.64     2.07    11.67     0  00:45        1.91
  HS02004842           JUNCTION     0.95     2.22    11.49     0  00:45        2.22
  HS02004837           JUNCTION     0.66     1.99    11.57     0  00:45        1.92
  HS02004830           JUNCTION     0.74     2.03    11.50     0  00:45        1.99
  HS02004824           JUNCTION     0.79     2.01    11.41     0  00:45        2.01
  HS02004817           JUNCTION     1.27     2.44    11.29     0  00:45        2.41
  HS02004807           JUNCTION     0.94     1.92    11.09     0  00:45        1.92
  HS02004802           JUNCTION     0.94     1.81    10.93     0  00:48        1.80
  HS02004799           JUNCTION     1.04     1.76    10.97     0  00:45        1.76
  HS02004792           JUNCTION     0.85     1.60    11.12     0  00:43        1.60
  HS02004788           JUNCTION     0.64     1.42    11.32     0  00:43        1.42
  HS02004785           JUNCTION     0.68     1.49    11.39     0  00:43        1.40
  HS02004777           JUNCTION     0.81     1.48    11.28     0  00:43        1.48
  HS02004770           JUNCTION     0.79     1.42    11.25     0  00:43        1.42
  HS02004480           JUNCTION     0.93     1.67    10.91     0  00:45        1.64
  HS02004479           JUNCTION     0.97     1.69    10.89     0  00:45        1.67
  HS02004478           JUNCTION     0.83     1.59    10.82     0  00:48        1.58
  HS02004053           JUNCTION     0.31     1.90    10.67     0  00:49        1.10
  HS02004052           JUNCTION     0.38     1.50    11.15     0  00:49        1.39
  HS02004049           JUNCTION     0.23     1.03    11.72     0  00:50        0.85
  HS02004048           JUNCTION     0.52     1.70    12.60     0  00:48        1.70
  HS02004046           JUNCTION     0.46     1.73    13.45     0  00:51        1.72
  HS02004043           JUNCTION     0.25     1.84    14.53     0  00:51        1.83
  HS02004041           JUNCTION     0.14     0.45    15.90     0  00:51        0.45
  HS02004038           JUNCTION     0.14     0.36    19.05     0  00:51        0.36
  HS02004036           JUNCTION     0.00     0.00    22.46     0  00:00        0.00
  HS02004034           JUNCTION     0.00     0.00    26.83     0  00:00        0.00
  HS02004028           JUNCTION     0.21     0.51    37.36     0  00:48        0.51
  HS02004027           JUNCTION     0.17     0.34    36.47     0  00:48        0.34
  HS02004026           JUNCTION     0.17     0.35    35.75     0  00:48        0.35
  HS02004024           JUNCTION     0.18     0.41    34.63     0  00:48        0.41
  HS02004022           JUNCTION     0.25     0.80    33.84     0  00:47        0.80
  HS02004021           JUNCTION     0.29     0.81    32.54     0  00:45        0.81
  HS02004019           JUNCTION     0.36     0.80    31.76     0  00:44        0.80
  HS02004018           JUNCTION     0.24     0.60    33.81     0  00:47        0.60
  HS02004017           JUNCTION     0.23     0.53    34.37     0  00:48        0.53
  HS02004013           JUNCTION     0.16     0.72    35.86     0  00:51        0.72
  HS02004010           JUNCTION     0.06     0.18    38.04     0  00:51        0.18
  HS02003174           JUNCTION     0.20     0.47     6.01     0  00:52        0.47
  HS02003171           JUNCTION     0.22     0.53     6.21     0  00:52        0.53
  HS02003170           JUNCTION     0.25     0.49     6.94     0  00:52        0.49
  HS02003168           JUNCTION     0.13     0.33     6.82     0  00:52        0.33
  HS02003166           JUNCTION     0.25     0.50     6.97     0  00:52        0.50
  HS02003162           JUNCTION     0.24     0.42    30.67     0  00:45        0.42
  HS02003160           JUNCTION     0.18     0.38    28.43     0  00:51        0.38
  HS02003150           JUNCTION     0.19     0.40    26.42     0  00:51        0.40
  HS02003148           JUNCTION     0.21     0.53    22.27     0  00:51        0.53
  HS02003145           JUNCTION     0.28     0.81    14.68     0  00:49        0.81
  HS02003143           JUNCTION     0.41     0.80    13.27     0  00:41        0.80
  HS02003138           JUNCTION     0.24     0.61     7.10     0  01:46        0.61
  HS02003136           JUNCTION     1.56     2.28    10.00     0  00:00        2.28
  HS02003125           JUNCTION     1.60     2.38     9.83     0  00:33        2.30
  HS02003122           JUNCTION     1.64     2.43     9.86     0  00:52        2.42
  HS02003119           JUNCTION     1.40     2.45    10.17     0  00:33        2.23
  HS02003116           JUNCTION     1.08     2.43    10.55     0  00:33        1.85
  HS02003111           JUNCTION     0.48     0.97     9.98     0  00:52        0.96
  HS02003108           JUNCTION     0.39     1.17    10.29     0  00:45        0.97
  HS02003100           JUNCTION     0.28     1.12    10.36     0  00:51        0.92
  HS02003088           JUNCTION     0.24     1.19    10.49     0  00:51        0.94
  HS02003084           JUNCTION     0.12     1.15    10.59     0  00:51        0.83
  HS02003079           JUNCTION     0.08     1.16    10.67     0  00:51        0.77
  HS02003077           JUNCTION     0.02     0.58    10.31     0  00:52        0.58
  HS02003065           JUNCTION     0.75     1.66    10.89     0  00:51        1.65
  HS02003056           JUNCTION     0.80     1.76    10.70     0  00:48        1.75
  HS02003053           JUNCTION     0.56     1.66    10.96     0  00:48        1.64
  HS02003042           JUNCTION     0.38     1.69    11.35     0  00:48        1.40
  HS02003039           JUNCTION     0.42     1.76    11.42     0  00:48        1.48
  HS02003036           JUNCTION     0.22     1.41    11.47     0  00:48        1.24
  HS02003028           JUNCTION     0.34     1.40    11.14     0  00:47        1.40
  HS02003021           JUNCTION     0.37     1.55    10.92     0  00:47        1.49
  HS02003018           JUNCTION     0.38     1.48    10.69     0  00:47        1.48
  HS02003017           JUNCTION     0.38     1.48    10.64     0  00:47        1.48
  HS02003013           JUNCTION     0.38     1.47    10.52     0  00:47        1.42
  HS02003010           JUNCTION     0.40     1.44    10.24     0  00:47        1.30
  HS02003007           JUNCTION     0.35     1.30     9.92     0  00:47        1.09
  HS02003004           JUNCTION     0.44     1.04     9.36     0  00:47        0.98
  HS02003001           JUNCTION     0.13     0.30     8.60     0  00:52        0.30
  YS02001738           JUNCTION     0.00     0.00     8.89     0  00:00        0.00
  YS02001739           JUNCTION     0.00     0.00     8.37     0  00:00        0.00
  YS02001742           JUNCTION     0.00     0.00     8.49     0  00:00        0.00
  YS02001745           JUNCTION     0.16     0.45     7.97     0  00:53        0.43
  YS02001748           JUNCTION     0.20     0.97     8.04     0  00:52        0.90
  YS02001751           JUNCTION     0.21     2.20     9.08     0  00:52        1.06
  YS02001754           JUNCTION     0.25     2.20     8.81     0  00:51        1.54
  YS02001762           JUNCTION     0.46     2.15     8.55     0  00:51        2.15
  YS02001765           JUNCTION     0.45     2.10     8.55     0  00:51        2.10
  YS02001767           JUNCTION     0.46     2.03     8.52     0  00:51        2.03
  YS02001770           JUNCTION     0.53     1.95     8.44     0  00:51        1.95
  YS02001774           JUNCTION     0.60     2.02     8.44     0  00:51        2.00
  YS02001779           JUNCTION     0.34     1.68     8.37     0  00:51        1.68
  YS02001882           JUNCTION     0.82     1.83     8.55     0  00:45        1.66
  YS02001884           JUNCTION     0.92     1.91     8.53     0  00:45        1.75
  YS02001759           JUNCTION     0.46     2.21     8.57     0  00:51        2.19
  YS02001887           JUNCTION     1.00     1.91     8.44     0  00:45        1.83
  YS02001890           JUNCTION     1.02     1.81     8.32     0  00:45        1.81
  YS02001898           JUNCTION     0.79     1.59     8.32     0  00:45        1.56
  YS02001901           JUNCTION     0.89     1.69     8.29     0  00:46        1.67
  YS02001904           JUNCTION     0.87     1.64     8.27     0  00:46        1.63
  YS02001907           JUNCTION     1.19     1.96     8.25     0  00:46        1.96
  YS02001910           JUNCTION     1.02     2.01     8.52     0  00:52        2.01
  YS02001915           JUNCTION     0.86     2.00     8.72     0  00:51        2.00
  YS02001918           JUNCTION     0.59     1.81     8.88     0  00:48        1.81
  YS02001920           JUNCTION     0.67     2.14     9.15     0  00:48        2.03
  YS02001923           JUNCTION     0.49     2.03     9.29     0  00:48        1.90
  YS02001926           JUNCTION     0.48     1.90     9.35     0  00:48        1.89
  YS02001929           JUNCTION     0.33     1.78     9.47     0  00:48        1.78
  YS02001932           JUNCTION     0.23     1.77     9.57     0  00:52        1.17
  YS02001935           JUNCTION     0.17     1.60     9.53     0  00:52        0.97
  YS02001757           JUNCTION     0.44     2.10     8.36     0  00:51        2.02
  YS02001895           JUNCTION     0.78     1.57     8.32     0  00:46        1.56
  YS02005679           JUNCTION     0.00     0.01    10.25     0  00:51        0.01
  YS02005559           JUNCTION     0.11     0.23    10.18     0  00:53        0.23
  YS02005651           JUNCTION     0.07     0.19    10.96     0  00:52        0.19
  YS02005670           JUNCTION     0.08     0.22    10.67     0  00:51        0.22
  YS02005547           JUNCTION     0.06     0.16    10.70     0  00:51        0.16
  YS02005549           JUNCTION     0.08     0.25    11.16     0  00:51        0.25
  YS02005550           JUNCTION     0.11     0.48    11.10     0  00:50        0.40
  YS02005551           JUNCTION     0.06     0.15    10.53     0  00:52        0.15
  YS02005553           JUNCTION     0.13     0.42    10.78     0  00:51        0.37
  YS02005554           JUNCTION     0.07     0.15    10.39     0  00:53        0.15
  YS02005556           JUNCTION     0.13     0.28    10.34     0  00:53        0.28
  YS02005557           JUNCTION     0.07     0.15    10.11     0  00:53        0.15
  YS02005560           JUNCTION     0.08     0.17     9.91     0  00:53        0.17
  YS02005562           JUNCTION     0.13     0.26    10.00     0  00:53        0.26
  YS02005563           JUNCTION     0.07     0.15     9.81     0  00:53        0.15
  YS02005565           JUNCTION     0.11     0.23     9.94     0  00:53        0.23
  YS02005566           JUNCTION     0.09     0.19     9.58     0  00:53        0.19
  YS02005568           JUNCTION     0.15     0.49     9.99     0  00:51        0.41
  YS02005569           JUNCTION     0.11     0.22     9.55     0  00:53        0.22
  YS02005598           JUNCTION     0.24     1.07    10.91     0  00:47        1.07
  YS02005600           JUNCTION     0.23     1.02    10.68     0  00:47        1.02
  YS02005602           JUNCTION     0.53     2.15    10.43     0  00:47        2.15
  YS02005603           JUNCTION     0.17     1.14     9.27     0  00:47        0.58
  YS02005609           JUNCTION     0.09     0.22     9.12     0  00:52        0.22
  YS02005653           JUNCTION     0.14     0.87    11.84     0  00:50        0.87
  YS02005654           JUNCTION     0.15     0.65    11.41     0  00:51        0.65
  YS02005655           JUNCTION     0.06     0.15    10.78     0  00:51        0.15
  YS02005595           JUNCTION     0.34     1.36    11.04     0  00:45        1.36
  YS02005658           JUNCTION     0.12     0.51    11.41     0  00:52        0.50
  YS02005659           JUNCTION     0.06     0.15    10.81     0  00:52        0.15
  YS02005661           JUNCTION     0.15     0.71    11.41     0  00:51        0.70
  YS02005662           JUNCTION     0.06     0.14    10.76     0  00:52        0.14
  YS02005664           JUNCTION     0.14     0.54    11.12     0  00:52        0.53
  YS02005665           JUNCTION     0.05     0.12    10.68     0  00:52        0.12
  YS02005668           JUNCTION     0.05     0.12    10.29     0  00:52        0.12
  YS02005667           JUNCTION     0.28     0.68    10.70     0  00:51        0.67
  YS02005571           JUNCTION     0.18     0.51     9.99     0  00:53        0.50
  YS02005572           JUNCTION     0.12     0.26     9.62     0  00:53        0.26
  YS02005576           JUNCTION     0.13     0.44    10.20     0  00:52        0.35
  YS02005577           JUNCTION     0.11     0.24     9.73     0  00:53        0.24
  YS02005579           JUNCTION     0.33     1.12    10.74     0  00:50        1.12
  YS02005580           JUNCTION     0.20     0.92    10.46     0  00:50        0.69
  YS02005582           JUNCTION     0.34     0.86    10.94     0  00:49        0.86
  YS02005583           JUNCTION     0.17     0.94    10.94     0  00:49        0.41
  YS02005612           JUNCTION     0.45     1.59     9.72     0  00:51        1.59
  YS02005615           JUNCTION     0.06     0.16    11.65     0  00:51        0.16
  YS02005616           JUNCTION     0.05     0.13    10.95     0  00:51        0.12
  YS02005618           JUNCTION     0.09     0.27    11.13     0  00:51        0.27
  YS02005619           JUNCTION     0.06     0.15    10.70     0  00:51        0.15
  YS02005621           JUNCTION     0.10     0.42    11.53     0  00:50        0.35
  YS02005622           JUNCTION     0.04     0.12    11.08     0  00:51        0.12
  YS02005625           JUNCTION     0.04     0.11    11.12     0  00:51        0.11
  YS02005627           JUNCTION     0.12     0.45    11.38     0  00:50        0.44
  YS02005628           JUNCTION     0.04     0.12    11.02     0  00:51        0.11
  YS02005630           JUNCTION     0.11     0.56    11.64     0  00:50        0.47
  YS02005631           JUNCTION     0.05     0.14    11.01     0  00:52        0.14
  YS02005633           JUNCTION     0.11     0.49    11.62     0  00:50        0.48
  YS02005634           JUNCTION     0.06     0.15    10.98     0  00:52        0.15
  YS02005636           JUNCTION     0.13     0.63    11.63     0  00:52        0.62
  YS02005637           JUNCTION     0.06     0.17    10.93     0  00:52        0.17
  YS02005639           JUNCTION     0.11     0.52    11.15     0  00:51        0.51
  YS02005640           JUNCTION     0.06     0.17    10.50     0  00:52        0.17
  YS02005642           JUNCTION     0.08     0.23    11.06     0  00:52        0.23
  YS02005644           JUNCTION     0.14     0.75    11.87     0  00:52        0.75
  YS02005645           JUNCTION     0.08     0.21    11.02     0  00:52        0.21
  YS02005647           JUNCTION     0.25     1.03    11.92     0  00:50        1.03
  YS02005648           JUNCTION     0.10     0.23    11.02     0  00:50        0.23
  YS02005650           JUNCTION     0.16     0.78    11.67     0  00:52        0.78
  YS02005671           JUNCTION     0.04     0.10    10.33     0  00:51        0.10
  YS02005673           JUNCTION     0.08     0.23    10.58     0  00:51        0.23
  YS02005674           JUNCTION     0.06     0.14    10.04     0  00:51        0.14
  YS02005676           JUNCTION     0.00     0.00    10.24     0  00:51        0.00
  YS02005680           JUNCTION     0.06     0.15    10.25     0  00:52        0.15
  YS02005682           JUNCTION     0.00     0.00    10.06     0  00:00        0.00
  YS02005683           JUNCTION     0.04     0.09     9.98     0  00:52        0.09
  YS02005376           JUNCTION     0.82     1.01    11.10     0  00:29        1.01
  YS02005378           JUNCTION     1.36     1.62    11.14     0  00:49        1.62
  YS02005381           JUNCTION     1.26     1.57    11.20     0  00:29        1.57
  YS02005624           JUNCTION     0.23     0.55    11.43     0  00:51        0.54
  YS02005384           JUNCTION     0.41     0.76    10.42     0  00:29        0.53
  YS02005677           JUNCTION     0.06     0.16    10.24     0  00:51        0.16
  YSB1105              JUNCTION     0.30     1.35    10.83     0  00:53        0.75
  YSB1106              JUNCTION     0.29     1.69    11.52     0  00:49        0.88
  YSB1109              JUNCTION     0.37     1.66    11.60     0  00:49        1.19
  YSB1112              JUNCTION     0.38     1.82    11.95     0  00:49        1.42
  YSB1115              JUNCTION     0.36     1.90    12.20     0  00:49        1.40
  YSB1118              JUNCTION     0.37     1.80    12.34     0  00:49        1.50
  YSB1121              JUNCTION     0.44     1.70    12.37     0  00:49        1.70
  YSB1124              JUNCTION     0.30     1.60    12.43     0  00:49        1.55
  YSB1128              JUNCTION     0.49     1.85    12.43     0  00:44        1.50
  YSB1132              JUNCTION     0.55     1.90    12.35     0  00:44        1.62
  YSB1228              JUNCTION     0.06     0.17    11.02     0  00:51        0.17
  YSB1202              JUNCTION     0.98     1.50    12.39     0  00:40        1.47
  YSB1135              JUNCTION     0.68     2.00    12.26     0  00:44        1.81
  YSB1138              JUNCTION     0.77     1.90    12.07     0  00:44        1.90
  YSB1141              JUNCTION     0.82     2.00    11.83     0  00:44        1.87
  YSB1145              JUNCTION     0.83     1.99    11.69     0  00:44        1.85
  YSB1148              JUNCTION     0.91     2.00    11.50     0  00:44        1.89
  YSB1151              JUNCTION     1.09     2.09    11.32     0  00:44        2.00
  YSB1154              JUNCTION     1.23     2.10    11.16     0  00:44        2.10
  YSB1198              JUNCTION     0.24     1.60    12.39     0  00:45        1.18
  YSB1192              JUNCTION     0.47     1.90    12.17     0  00:44        1.70
  YSB6556              JUNCTION     1.06     1.80    10.97     0  00:44        1.80
  YSB1205              JUNCTION     1.16     1.65    12.35     0  00:40        1.65
  YSB1209              JUNCTION     1.14     1.65    12.22     0  00:48        1.65
  YSB1212              JUNCTION     1.05     1.60    12.13     0  00:48        1.60
  YSB1215              JUNCTION     1.07     1.69    12.04     0  01:11        1.69
  YSB1218              JUNCTION     1.08     1.75    11.94     0  00:48        1.75
  YSB1221              JUNCTION     1.00     1.77    11.74     0  00:53        1.59
  YSB1224              JUNCTION     0.87     1.73    11.58     0  00:53        1.35
  YSB1195              JUNCTION     0.41     1.90    12.28     0  00:44        1.59
  YSB1189              JUNCTION     0.57     1.80    11.96     0  00:44        1.80
  YSB1186              JUNCTION     0.63     1.93    11.80     0  00:44        1.74
  YSB1183              JUNCTION     0.78     2.05    11.64     0  00:44        1.87
  YSB1180              JUNCTION     0.81     1.95    11.46     0  00:44        1.83
  YSB1177              JUNCTION     1.07     2.05    11.24     0  00:44        2.02
  YSB1174              JUNCTION     1.12     1.95    11.06     0  00:49        1.95
  YSB1171              JUNCTION     1.28     1.95    10.85     0  00:44        1.95
  YS02006553           JUNCTION     1.19     2.01     8.29     0  00:46        1.98
  YS02006561           JUNCTION     0.44     1.19     7.85     0  00:46        0.92
  YS02006562           JUNCTION     0.96     1.84     8.35     0  00:46        1.80
  YS02006556           JUNCTION     1.16     2.02     8.33     0  00:46        1.98
  YS02006558           JUNCTION     1.20     2.07     8.34     0  00:46        2.03
  YS6132               JUNCTION     0.59     2.89    10.21     0  00:52        2.00
  YS6137               JUNCTION     0.31     2.54    10.33     0  00:52        2.09
  YS6189               JUNCTION     0.41     2.79    10.58     0  00:52        2.46
  YS6184               JUNCTION     0.42     2.65    10.54     0  00:52        2.65
  YS6179               JUNCTION     0.36     2.60    10.58     0  00:52        2.60
  YS6176               JUNCTION     0.26     2.40    10.60     0  00:51        2.37
  YS6171               JUNCTION     0.28     2.10    10.51     0  00:51        2.10
  YS6168               JUNCTION     0.30     2.00    10.51     0  00:51        2.00
  YS6164               JUNCTION     0.11     1.90    10.63     0  00:51        1.89
  YS6162               JUNCTION     0.17     2.10    10.75     0  00:51        1.98
  YS6187               JUNCTION     0.46     2.75    10.53     0  00:52        2.60
  YS6363               JUNCTION     0.35     3.02    10.81     0  00:52        1.66
  YS6360               JUNCTION     0.47     2.80    10.60     0  00:52        1.77
  YS6354               JUNCTION     0.46     2.51    10.66     0  00:52        2.06
  YS6351               JUNCTION     0.55     2.50    10.71     0  00:52        2.38
  YS6350               JUNCTION     0.62     2.50    10.72     0  00:50        2.50
  YS6348               JUNCTION     0.57     2.45    10.85     0  00:49        2.45
  YS6344               JUNCTION     0.39     2.27    10.87     0  00:49        2.26
  YS6375               JUNCTION     0.10     0.34     8.76     0  00:51        0.34
  YS6377               JUNCTION     0.16     0.41     8.77     0  00:52        0.40
  YS6381               JUNCTION     0.18     0.47     8.60     0  00:52        0.47
  YS6386               JUNCTION     0.21     0.54     8.52     0  00:52        0.54
  YS6390               JUNCTION     0.43     0.65     8.34     0  00:52        0.65
  YS6394               JUNCTION     0.11     0.27     8.19     0  00:52        0.27
  YS6404               JUNCTION     0.55     3.00    10.23     0  00:51        1.48
  YS6401               JUNCTION     0.18     0.42     7.63     0  00:52        0.40
  YS02004319           JUNCTION     0.33     1.18    20.80     0  00:45        1.18
  YS02004320           JUNCTION     0.00     0.00    22.64     0  01:00        0.00
  YS02004321           JUNCTION     0.00     0.00    26.80     0  00:59        0.00
  YS02004307           JUNCTION     0.17     0.52    11.05     0  00:51        0.52
  YS02004309           JUNCTION     0.86     1.55    13.07     0  00:31        1.55
  YS02004312           JUNCTION     0.53     1.48    14.91     0  00:43        1.48
  YS02004314           JUNCTION     0.38     1.28    16.99     0  00:45        1.28
  YS02004316           JUNCTION     0.39     1.36    19.13     0  00:45        1.36
  YS02001783           JUNCTION     0.67     1.45     7.59     0  00:46        1.25
  YS02001784           JUNCTION     0.64     1.23     7.29     0  00:46        1.13
  YS02001786           JUNCTION     0.52     0.98     7.01     0  00:46        0.88
  YS02001788           JUNCTION     0.38     0.63     6.60     0  00:49        0.62
  YS02001790           JUNCTION     0.44     0.72     6.37     0  01:00        0.71
  YS02001791           JUNCTION     0.27     0.44     5.91     0  00:49        0.43
  YS02001793           JUNCTION     0.14     0.28     5.11     0  01:11        0.27
  YS02003309           JUNCTION     0.72     1.21     9.77     0  00:28        1.21
  YS02003306           JUNCTION     0.84     1.16     9.60     0  00:28        1.16
  YS02003269           JUNCTION     0.14     0.17     7.76     0  00:45        0.17
  YS02003272           JUNCTION     0.42     0.88     8.62     0  00:29        0.84
  YS02003278           JUNCTION     0.84     1.21     9.13     0  00:47        1.21
  YS02003281           JUNCTION     0.94     1.39     9.47     0  00:45        1.39
  YS02003284           JUNCTION     1.02     1.40     9.41     0  00:45        1.40
  YS02003287           JUNCTION     0.97     1.27     9.34     0  00:35        1.27
  YS02003290           JUNCTION     0.83     1.11     9.40     0  00:56        1.11
  YS02003294           JUNCTION     0.98     1.24     9.42     0  00:29        1.24
  YS02003275           JUNCTION     0.63     0.92     8.83     0  00:58        0.91
  YS02003297           JUNCTION     0.96     1.22     9.43     0  00:29        1.22
  YS02003300           JUNCTION     0.90     1.15     9.42     0  00:28        1.15
  YS02003303           JUNCTION     0.89     1.14     9.46     0  00:28        1.14
  YSB1227              JUNCTION     0.01     0.12    11.02     0  00:51        0.11
  CaochengRainPumpOutfall1 OUTFALL      0.00     0.00     6.00     0  00:00        0.00
  JiankangRainPumpOutfall2 OUTFALL      0.00     0.00     6.00     0  00:00        0.00
  JiankangRainPumpOutfall1 OUTFALL      0.00     0.00     6.00     0  00:00        0.00
  CaochengRainPumpOutfall2 OUTFALL      0.00     0.00     6.00     0  00:00        0.00
  YS02005684           OUTFALL      0.03     0.09     8.49     0  00:52        0.09
  YS02005681           OUTFALL      0.06     0.15     9.37     0  00:52        0.15
  YS02005678           OUTFALL      0.06     0.16     8.70     0  00:52        0.16
  YS02005675           OUTFALL      0.06     0.14     8.68     0  00:51        0.14
  YS02005672           OUTFALL      0.04     0.10     8.44     0  00:51        0.10
  YS02005669           OUTFALL      0.05     0.12     8.84     0  00:52        0.12
  YS02005666           OUTFALL      0.05     0.12     8.80     0  00:52        0.12
  YS02005663           OUTFALL      0.06     0.14     8.87     0  00:52        0.14
  YS02005660           OUTFALL      0.06     0.15     8.97     0  00:52        0.15
  YS02005657           OUTFALL      0.00     0.00     8.74     0  00:00        0.00
  YS02005652           OUTFALL      0.07     0.19     8.82     0  00:52        0.19
  YS02005649           OUTFALL      0.10     0.23     8.93     0  00:50        0.23
  YS02005646           OUTFALL      0.08     0.21     8.21     0  00:52        0.21
  YS02005643           OUTFALL      0.08     0.23     8.79     0  00:52        0.23
  YS02005641           OUTFALL      0.06     0.17     8.86     0  00:52        0.17
  YS02005638           OUTFALL      0.06     0.17     8.83     0  00:52        0.17
  YS02005635           OUTFALL      0.06     0.15     8.81     0  00:52        0.15
  YS02005632           OUTFALL      0.05     0.14     8.69     0  00:52        0.13
  YS02005629           OUTFALL      0.04     0.11     8.59     0  00:51        0.11
  YS02005626           OUTFALL      0.04     0.11     8.63     0  00:51        0.11
  YS02005623           OUTFALL      0.04     0.12     8.59     0  00:51        0.12
  YS02005620           OUTFALL      0.05     0.15     8.94     0  00:51        0.15
  YS02005617           OUTFALL      0.05     0.13     8.96     0  00:51        0.12
  YSB1103              OUTFALL      0.30     0.60     8.60     0  00:49        0.60
  YSB1229              OUTFALL      0.06     0.17     8.97     0  00:51        0.17
  YS02005548           OUTFALL      0.06     0.16     9.16     0  00:51        0.16
  YS02005552           OUTFALL      0.06     0.15     8.78     0  00:52        0.15
  YS02005555           OUTFALL      0.07     0.15     8.88     0  00:53        0.15
  YS02005558           OUTFALL      0.07     0.15     8.85     0  00:53        0.15
  YS02005561           OUTFALL      0.08     0.17     8.85     0  00:53        0.17
  YS02005564           OUTFALL      0.07     0.15     8.62     0  00:53        0.15
  YS02005567           OUTFALL      0.09     0.19     8.73     0  00:53        0.19
  YS02005570           OUTFALL      0.11     0.22     8.94     0  00:53        0.22
  YS02005574           OUTFALL      0.12     0.28     9.12     0  00:53        0.28
  YS02005578           OUTFALL      0.11     0.24     9.02     0  00:53        0.24
  WS02005134           OUTFALL      0.00     0.00     8.74     0  00:00        0.00
  YS02005581           OUTFALL      0.14     0.30     9.10     0  00:50        0.30
  YS02005584           OUTFALL      0.15     0.30     9.26     0  00:48        0.30
  YS02005593           OUTFALL      0.25     0.28     9.00     0  01:08        0.28
  YS02005596           OUTFALL      0.16     0.30     8.84     0  00:45        0.30
  YS02005374           OUTFALL      0.14     0.30     8.54     0  00:47        0.30
  YS02005375           OUTFALL      0.14     0.30     8.69     0  00:46        0.30
  YS02005607           OUTFALL      0.13     0.30     7.53     0  00:47        0.30
  YS02005610           OUTFALL      0.09     0.22     8.84     0  00:52        0.22
  YS02005613           OUTFALL      0.15     0.30     8.58     0  00:49        0.30
  HS02003172           OUTFALL      0.20     0.47     5.92     0  00:52        0.47
  YS6395               OUTFALL      0.11     0.27     6.69     0  00:52        0.27
  YS6405               OUTFALL      0.18     0.41     3.86     0  00:52        0.40
  WSC                  OUTFALL      0.62     0.80     5.00     0  00:37        0.80
  JiankangQianchi      STORAGE      2.84     4.21     5.01     0  00:46        4.20
  CaochengTiaoxuchi    STORAGE      0.91     1.40     6.90     0  01:05        1.40
  XierchiQianchi       STORAGE      7.02     7.47     5.47     0  02:02        7.47
  
  
  *******************
  Node Inflow Summary
  *******************
  
  -------------------------------------------------------------------------------------------------
                                  Maximum  Maximum                  Lateral       Total        Flow
                                  Lateral    Total  Time of Max      Inflow      Inflow     Balance
                                   Inflow   Inflow   Occurrence      Volume      Volume       Error
  Node                 Type           LPS      LPS  days hr:min    10^6 ltr    10^6 ltr     Percent
  -------------------------------------------------------------------------------------------------
  WS02001211           JUNCTION      7.35   225.46     0  00:46      0.0538        1.18       4.681
  WS02001212           JUNCTION      0.00   230.16     0  00:46           0        1.13       2.684
  WS02001213           JUNCTION      0.00   234.79     0  01:28           0        1.11       3.562
  WS02003069           JUNCTION      0.32  2519.80     0  00:52     0.00234        10.8       0.738
  WS02003072           JUNCTION      0.00  2519.81     0  00:52           0        10.8       0.607
  WS02003073           JUNCTION      1.82  3088.03     0  00:51      0.0133        14.2       0.292
  WS02003076           JUNCTION      0.00  3088.04     0  00:51           0        14.1       0.340
  WS02003060           JUNCTION     16.53  2519.54     0  00:51       0.121        10.9       0.587
  WS02003066           JUNCTION      0.00  2307.51     0  00:51           0         9.8       0.110
  WS02003059           JUNCTION      0.00   243.84     0  00:46           0        1.11       5.503
  WS02003115           JUNCTION      0.00   477.09     0  01:05           0        1.24       0.418
  WS02003116           JUNCTION      0.00   268.90     0  00:24           0        1.15       0.716
  WS02003118           JUNCTION      0.32   224.73     0  00:23    1.28e-05        1.14       1.310
  WS02003215           JUNCTION      0.17  2470.73     0  00:52    2.01e-05        3.24       0.830
  WS02003110           JUNCTION      0.18   468.81     0  00:52     0.00132       0.637       1.171
  WS02003111           JUNCTION      1.51   947.05     0  00:52      0.0107        1.81       0.395
  WS02005155           JUNCTION      0.38   468.47     0  00:52     0.00279       0.636       1.555
  WS02005154           JUNCTION    468.20   468.20     0  00:52       0.632       0.634       0.932
  WS02005193           JUNCTION      0.00   179.13     0  00:27           0      0.0153     138.567
  WS02005196           JUNCTION      0.00   135.69     0  00:27           0      0.0057     584.219
  WS02003067           JUNCTION      0.00  1872.35     0  00:50           0        7.71       0.196
  WS02004401           JUNCTION      0.00  1101.94     0  01:39           0        5.88       0.537
  WS02004402           JUNCTION      0.00  1102.05     0  01:39           0        5.86       0.476
  WS02004403           JUNCTION      0.00  1102.34     0  01:39           0        5.84       0.412
  WS02004404           JUNCTION      0.16  1102.63     0  01:39     0.00119        5.82       0.286
  WS02004406           JUNCTION      0.00  1102.64     0  01:39           0         5.8       0.708
  WS02004409           JUNCTION      0.00  1822.78     0  00:49           0        8.46       0.418
  WS02004410           JUNCTION      0.00  1872.60     0  00:50           0        8.52       0.426
  WS02004411           JUNCTION      0.00  1872.42     0  00:50           0        7.83       0.445
  WS02004412           JUNCTION      0.00  1872.38     0  00:50           0        7.79       0.443
  WS02004413           JUNCTION      0.00  1872.29     0  00:50           0        7.76       0.564
  WS02004405           JUNCTION      0.18  1102.78     0  01:39    0.000432        5.82       0.416
  WS02006109           JUNCTION      1.95  1308.01     0  00:00     0.00963        6.77       0.335
  WS02006110           JUNCTION      0.34  1101.51     0  01:39    0.000288        6.03      -0.324
  WS02006111           JUNCTION      0.04  1176.04     0  00:00    9.27e-06        6.02      -0.294
  WS02006112           JUNCTION      0.48  2307.30     0  00:00    2.68e-05        6.04       0.274
  WS02006113           JUNCTION      0.05  1101.56     0  01:39    5.93e-06           6      -0.353
  WS02006115           JUNCTION      0.00  1366.62     0  00:00           0        5.93       0.555
  WS02006116           JUNCTION      0.36  1102.08     0  01:39    0.000442         5.9       0.459
  WS02006230           JUNCTION     10.39  1026.96     0  00:49      0.0753        3.83       0.433
  WS02006231           JUNCTION      0.54   453.64     0  00:48     0.00154        2.26       0.717
  WS02006232           JUNCTION      0.25   453.77     0  00:48    0.000148        2.28       0.792
  WS02006234           JUNCTION      0.08   453.59     0  00:48    2.35e-06        2.29       0.536
  WS02006235           JUNCTION      0.27   415.12     0  00:51    0.000546        2.28       0.483
  WS02006238           JUNCTION      0.00   415.37     0  01:44           0        2.28       0.323
  WS02006240           JUNCTION      0.00   415.01     0  00:51           0        2.31       0.714
  WS02006242           JUNCTION      0.40   415.09     0  00:51    4.09e-05        2.33       0.844
  WS02006243           JUNCTION      0.71   283.43     0  00:25      0.0015         1.7       0.953
  WS02006245           JUNCTION      0.00   290.72     0  00:25           0        1.72       0.777
  WS02006247           JUNCTION      0.00   302.03     0  00:25           0        1.73       0.695
  WS02006248           JUNCTION      0.00   344.53     0  00:36           0        2.08       0.535
  WS02006249           JUNCTION      0.00  1387.69     0  00:52           0        5.62       0.300
  WS02006239           JUNCTION      0.00   415.14     0  00:51           0         2.3       0.553
  WS02006251           JUNCTION      0.08  1743.22     0  00:52    0.000564        5.91       0.311
  WS02006252           JUNCTION      0.00   756.01     0  00:52           0        2.02      -0.015
  WS02006253           JUNCTION     59.55  1743.39     0  00:52      0.0759        4.84       0.426
  WS02006256           JUNCTION      0.00   300.00     0  00:31           0        1.63       0.063
  WS02004138           JUNCTION      0.00   190.00     0  00:29           0        1.17       0.241
  WS02004139           JUNCTION      0.32   190.32     0  00:33     0.00235        1.17       3.917
  WS02004407           JUNCTION      0.08  1822.30     0  00:49    8.09e-05        8.52       0.384
  WS02006228           JUNCTION      1.21  1288.75     0  00:49    0.000978        6.75       0.230
  WS02006229           JUNCTION      0.95  2306.71     0  00:50     0.00082        10.4       0.285
  WS02006280           JUNCTION      0.24  2305.33     0  00:49    0.000375        10.3       0.044
  WS02006284           JUNCTION      0.17  2305.52     0  00:49    0.000742        10.3       0.183
  WS02006287           JUNCTION      0.20  2305.67     0  00:49    9.68e-05        10.3       0.117
  WS02003091           JUNCTION      0.48  1200.35     0  00:00     0.00108        3.56      -1.107
  WS02003203           JUNCTION      0.31  2264.56     0  00:00    0.000144         5.8       0.176
  WS6145               JUNCTION      0.26   231.33     0  00:49     0.00037      0.0899       0.378
  WS6147               JUNCTION      0.00   231.47     0  00:49           0       0.079       0.235
  WS6150               JUNCTION      0.14   231.36     0  00:49     0.00043      0.0681       0.518
  WS6152               JUNCTION      0.58   239.64     0  00:49     0.00422      0.0572       0.656
  WS6155               JUNCTION      0.01   235.03     0  00:49    4.01e-05      0.0423       0.500
  WS6156               JUNCTION      0.69   236.86     0  00:49     0.00382      0.0312       0.394
  WS6136               JUNCTION      0.19   724.98     0  00:49     5.4e-05        1.62       0.065
  WS6140               JUNCTION      0.19   231.55     0  00:49    0.000122        0.11       0.118
  WS6142               JUNCTION      0.20   231.52     0  00:49    0.000153         0.1       0.221
  WS6325               JUNCTION      0.21   130.52     0  00:48    0.000189      0.0877       2.790
  WS6327               JUNCTION      0.16   129.85     0  00:48    0.000483      0.0784       0.706
  WS6329               JUNCTION      0.53   129.61     0  00:48     0.00191      0.0678       0.197
  WS6332               JUNCTION      0.37   129.82     0  00:48     0.00077      0.0551       0.175
  WS6158               JUNCTION      1.92   254.66     0  00:50      0.0119      0.0156      -1.013
  WS6335               JUNCTION      0.69   131.20     0  00:48     0.00363      0.0431       0.412
  WS6338               JUNCTION      0.39   131.81     0  00:48     0.00111      0.0282       0.142
  WS6340               JUNCTION      0.26   131.28     0  00:48    0.000232      0.0155       0.213
[...]
  WS02003081WS02003080        1.69      1.69      1.69      1.70         1.69
  WS02003080WS02003077        0.68      0.68      1.69      1.69         0.01
  WS02003073WS02003076        0.80      0.80      1.46      0.26         0.01
  HS02004901HS02004770        0.83      0.83      0.84      0.12         0.01
  HS02004876HS02004881        0.84      0.86      0.84      1.63         0.84
  HS02004870HS02004876        0.76      0.76      0.86      0.01         0.01
  HS02004049HS02004052        0.16      0.16      0.19      0.01         0.01
  HS02004048HS02004049        0.27      0.40      0.27      0.47         0.27
  HS02004046HS02004048        0.18      0.18      0.40      0.01         0.01
  HS02004043HS02004046        0.13      0.13      0.20      0.03         0.03
  HS02004041HS02004043        0.01      0.01      0.13      0.01         0.01
  HS02004028HS02004027        0.01      0.16      0.01      0.18         0.01
  HS02003143HS02003065        0.64      0.64      0.90      0.01         0.01
  HS02004842HS02004848        0.67      0.67      0.92      0.01         0.01
  HS02004837HS02004842        0.71      0.71      0.92      0.01         0.01
  HS02004830HS02004837        0.71      0.71      0.77      0.01         0.01
  HS02004824HS02004830        0.77      0.77      0.83      0.01         0.01
  HS02004817HS02004824        0.83      0.83      1.57      0.01         0.01
  HS02004770HS02004777        0.83      0.83      0.84      0.01         0.01
  HS02004799HS02004480        1.03      1.03      1.13      1.16         0.01
  HS02004792HS02004799        0.95      0.95      1.13      0.01         0.01
  HS02004788HS02004792        0.77      0.77      0.95      0.01         0.01
  HS02004785HS02004788        0.77      0.79      0.77      1.52         0.67
  HS02004777HS02004785        0.79      0.79      0.84      0.01         0.01
  HS02004480HS02004478        0.94      1.03      0.94      1.71         0.94
  HS02004479HS02004480        1.03      1.03      1.08      0.01         0.01
  HS02003013HS02003010        0.38      0.38      0.43      0.24         0.24
  HS02003010HS02003007        0.36      0.37      0.38      0.41         0.36
  HS02003007HS02003004        0.38      0.38      0.48      0.20         0.20
  HS02003004HS02003001        0.01      0.48      0.01      1.28         0.01
  HS02003065HS02003056        0.89      0.89      1.08      0.01         0.01
  HS02003042HS02003053        0.33      0.33      0.83      0.01         0.01
  HS02003028HS02003021        0.24      0.24      0.32      0.01         0.01
  HS02003021HS02003018        0.35      0.35      0.36      0.12         0.12
  HS02003018HS02003017        0.37      0.37      0.37      0.12         0.09
  HS02003017HS02003013        0.37      0.37      0.38      0.30         0.28
  HS02004862HS02004870        0.74      0.74      0.76      0.26         0.26
  HS02004848HS02004852        0.67      0.67      0.70      0.02         0.01
  HS02004856HS02004862        0.68      0.68      0.74      0.01         0.01
  HS02004852HS02004856        0.70      0.70      0.73      0.02         0.01
  HS02004024HS02004022        0.01      0.01      0.21      0.01         0.01
  HS02004022HS02004021        0.21      0.21      0.32      0.01         0.01
  HS02004021HS02004019        0.32      0.32      0.43      0.24         0.25
  HS02004019HS02003162        0.01      0.43      0.01      0.46         0.01
  HS02004052HS02004053        0.18      0.19      0.18      0.21         0.18
  HS02003122HS02003125        1.51      1.51      1.51      0.20         0.24
  HS02003119HS02003122        1.49      1.49      1.51      0.01         0.01
  HS02003116HS02003119        1.45      1.45      1.49      0.01         0.01
  HS02003111HS02003116        0.01      0.01      1.48      0.01         0.01
  HS02004018HS02004019        0.25      0.25      0.43      0.01         0.01
  HS02003056HS02003136        0.92      0.92      1.53      0.01         0.01
  HS02004017HS02004018        0.24      0.24      0.25      0.01         0.01
  HS02004013HS02004017        0.06      0.06      0.24      0.07         0.06
  HS02004010HS02004013        0.01      0.01      0.06      0.01         0.01
  HS02004802HS02004478        0.96      0.96      1.05      0.23         0.01
  HS02004478WS02006287        0.79      0.79      1.03      0.01         0.01
  HS02003079HS02003084        0.02      0.02      0.04      0.01         0.01
  HS02003148HS02003145        0.01      0.01      0.16      0.02         0.01
  HS02003145HS02003143        0.16      0.16      0.61      0.15         0.13
  HS02003136WS02003203        1.54      1.54      1.65      0.01         0.01
  HS02003084HS02003088        0.04      0.04      0.07      0.01         0.01
  HS02003077HS02003079        0.01      0.01      0.02      0.01         0.01
  HS02003108HS02003111        0.20      0.20      0.44      0.01         0.01
  HS02003100HS02003108        0.10      0.10      0.20      0.01         0.01
  HS02003088HS02003100        0.08      0.08      0.10      0.04         0.03
  HS02004817HS02004807        1.01      1.01      1.57      0.01         0.01
  HS02004807HS02004802        1.01      1.01      1.03      0.40         0.41
  HS02003053HS02003056        0.83      0.83      1.08      0.01         0.01
  HS02003039HS02003042        0.40      0.41      0.45      0.23         0.02
  HS02003036HS02003039        0.19      0.19      0.24      0.01         0.01
  YS02001759YS02001757        0.15      0.15      0.16      0.17         0.14
  YS02001762YS02001759        0.15      0.15      0.15      0.15         0.14
  YS02001765YS02001762        0.15      0.15      0.15      0.10         0.08
  YS02001770YS02001767        0.15      0.17      0.15      0.74         0.15
  YS02001774YS02001770        0.16      0.16      0.19      0.01         0.01
  YS02001779YS02001774        0.13      0.13      0.19      0.01         0.01
  YS02001767YS02001765        0.15      0.15      0.15      0.20         0.15
  YS02006561YS02001783        0.50      0.50      0.72      0.01         0.01
  YS02001783YS02001784        0.69      0.72      0.69      0.92         0.69
  YS02001784YS02001785        0.57      0.69      0.57      1.36         0.57
  YS02001790YS02001791        0.01      0.01      0.01      0.68         0.01
  YS02001910YS02001907        0.76      0.76      1.02      0.07         0.07
  YS02001786YS02001788        0.01      0.57      0.01      1.12         0.01
  YS02001915YS02001910        0.65      0.65      0.76      0.01         0.01
  YS02001918YS02001915        0.55      0.55      0.65      0.01         0.01
  YS02001923YS02001920        0.48      0.48      0.57      0.01         0.01
  YS02001926YS02001923        0.21      0.21      0.23      0.01         0.01
  YS02001929YS02001926        0.09      0.09      0.23      0.01         0.01
  YS02001932YS02001929        0.05      0.05      0.09      0.01         0.01
  YS02001935YS02001932        0.01      0.01      0.01      0.01         0.01
  YS02001920YS02001918        0.55      0.55      0.57      0.01         0.01
  YS02003290YS02003287        1.59      1.59      1.65      0.01         0.01
  YS02003294YS02003290        1.60      1.60      1.69      0.08         0.01
  YS02003297YS02003294        1.68      1.68      1.68      0.21         0.23
  YS02003275YS02003272        1.54      1.57      1.54      1.62         1.54
  YS02003300YS02003297        1.60      1.60      1.66      0.01         0.01
  YS02003303YS02003300        1.58      1.58      1.62      0.01         0.01
  YS02005550YS02005551        0.01      0.07      0.01      0.12         0.01
  YS02005568YS02005569        0.01      0.16      0.01      0.29         0.01
  YS02005582YS02005583        0.37      0.62      0.37      0.85         0.37
  YS02003272YS02003269        0.01      1.55      0.01      1.62         0.01
  YS02003278YS02003275        1.58      1.66      1.58      1.75         1.58
  YS02003281YS02003278        1.63      1.63      1.65      1.59         1.59
  YS02003284YS02003281        1.63      1.63      1.65      1.00         0.38
  YS02003287YS02003284        1.64      1.64      1.67      0.01         0.08
  YS02003306YS02003303        1.57      1.57      1.60      0.54         0.54
  YS02003309YS02003306        1.55      1.55      1.57      0.01         0.01
  YS02005600YS02005375        0.23      0.23      0.25      0.25         0.23
  YS02005384YS02005593        0.01      1.54      0.01      1.57         0.01
  YS02005595YS02005596        0.31      0.33      0.32      0.35         0.31
  YS02005612YS02005613        0.12      0.12      1.19      0.34         0.01
  YS02005549YS02005547        0.01      0.01      0.01      0.01         0.01
  YS02005553YS02005554        0.01      0.11      0.01      0.26         0.01
  YS02005556YS02005557        0.01      0.01      0.01      0.30         0.01
  YS02005562YS02005563        0.01      0.01      0.01      0.24         0.01
  YS02005571YS02005572        0.01      0.29      0.01      0.45         0.01
  YS02005572YS02005574        0.01      0.01      0.01      0.09         0.01
  YS02005576YS02005577        0.01      0.09      0.01      0.17         0.01
  YS02005579YS02005580        0.29      0.49      0.29      0.69         0.29
  YS02005580YS02005581        0.27      0.29      0.27      0.31         0.27
  YS02005583YS02005584        0.37      0.37      0.39      0.39         0.37
  YS02006553YS02006556        0.88      0.88      1.07      0.01         0.01
  YS02006556YS02006558        0.95      0.95      1.11      0.01         0.01
  YSB6556YSB1171              1.19      1.19      1.64      0.01         0.01
  YSB1202YSB1205              1.36      1.36      1.38      0.01         0.01
  YSB1205YSB1209              1.38      1.38      1.38      0.80         0.74
  YSB1209YSB1212              1.36      1.38      1.36      1.50         1.36
  YSB1212YSB1215              1.36      1.36      1.36      0.57         0.56
  YSB1215YSB1218              1.36      1.36      1.36      0.63         0.62
  YSB1218YSB1221              1.35      1.35      1.36      1.34         1.34
  YSB1221YSB1224              1.36      1.36      1.37      1.35         1.36
  YSB1224YSB1105              1.16      1.41      1.16      1.51         1.16
  YSB1189YSB1186              0.70      0.70      0.82      0.20         0.20
  YS02001907YS02006553        1.38      1.38      1.46      0.01         0.01
  YS02006562YS02006558        0.72      0.72      1.11      0.01         0.01
  YS02006558YS02006561        0.60      0.87      0.60      1.28         0.60
  YS6184YS6187                0.14      0.14      0.15      0.09         0.09
  YS6360YS6363                0.10      0.15      0.10      0.80         0.10
  YS6354YS6360                0.21      0.22      0.23      0.22         0.20
  YS6351YS6354                0.22      0.25      0.22      0.47         0.22
  YS6350YS6351                0.25      0.28      0.25      0.85         0.25
  YS6348YS6350                0.26      0.26      0.28      0.24         0.23
  YS6344YS6348                0.26      0.26      0.33      0.01         0.01
  YS6363YS6132                0.10      0.10      0.28      0.01         0.01
  YS6137YS6132                0.20      0.20      0.38      0.01         0.01
  YS6189YS6137                0.20      0.20      0.21      1.60         0.01
  YS6187YS6189                0.14      0.14      0.15      0.32         0.01
  YS6179YS6184                0.13      0.13      0.14      0.01         0.01
  YS6176YS6179                0.08      0.08      0.13      0.01         0.01
  YS6171YS6176                0.10      0.10      0.13      0.01         0.01
  YS6168YS6171                0.09      0.09      0.10      0.06         0.06
  YS6164YS6168                0.06      0.06      0.09      0.01         0.01
  YS6162YS6164                0.09      0.09      0.10      0.01         0.01
  YS6132YS6404                0.01      0.15      0.01      0.31         0.01
  YSB1106YSB1105              0.07      0.21      0.07      0.26         0.07
  YSB1109YSB1106              0.21      0.27      0.21      0.42         0.21
  YSB1112YSB1109              0.27      0.28      0.27      0.31         0.27
  YSB1115YSB1112              0.25      0.25      0.28      0.09         0.09
  YSB1118YSB1115              0.28      0.29      0.28      0.31         0.28
  YSB1121YSB1118              0.29      0.32      0.29      0.42         0.29
  YSB1124YSB1121              0.28      0.28      0.32      0.01         0.01
  YSB1105YSB1103              0.14      0.14      0.20      0.20         0.14
  YS02001748YS02001751        0.01      0.01      0.02      0.01         0.01
  YS02001751YS02001754        0.02      0.02      0.08      0.01         0.01
  YS02001754YS02001757        0.08      0.08      0.16      0.01         0.01
  YS02001882YS02001884        0.66      0.66      0.67      0.01         0.01
  YS02001884YS02001887        0.69      0.69      0.71      0.01         0.01
  YS02001890YS02001895        0.64      0.64      0.76      0.01         0.01
  YS02001895YS02001898        0.64      0.64      0.64      0.01         0.01
  YS02001898YS02001901        0.65      0.65      0.69      0.01         0.01
  YS02001901YS02001904        0.68      0.68      0.69      0.01         0.01
  YS02001904YS02001907        0.68      0.68      1.07      0.01         0.01
  YS02001887YS02001890        0.73      0.73      0.74      0.14         0.01
  YS02004309YS02004307        0.16      1.11      0.16      1.08         0.16
  YS02004319YS02004316        0.36      0.36      0.37      0.01         0.01
  YS02005376YS02005378        1.66      1.66      1.84      0.01         0.01
  YS02005378YS02005381        1.82      1.82      1.84      0.15         0.01
  YS02005381YS02005384        1.54      1.54      1.82      1.83         0.01
  YS02005598YS02005374        0.23      0.23      0.25      0.25         0.23
  YS02005602YS02005603        0.21      0.54      0.21      0.69         0.21
  YS02005603YS02005607        0.21      0.21      0.23      0.23         0.21
  YS02005618YS02005619        0.01      0.01      0.01      0.03         0.01
  YS02005621YS02005622        0.01      0.02      0.01      0.08         0.01
  YS02005624YS02005625        0.01      0.01      0.28      0.05         0.01
  YS02005630YS02005631        0.01      0.06      0.01      0.11         0.01
  YS02005633YS02005634        0.01      0.06      0.01      0.08         0.01
  YS02005636YS02005637        0.01      0.10      0.01      0.14         0.01
  YS02005639YS02005640        0.01      0.07      0.01      0.10         0.01
  YS02005627YS02005628        0.01      0.06      0.01      0.29         0.01
  YS02005644YS02005645        0.01      0.11      0.01      0.14         0.01
  YS02005650YS02005651        0.01      0.15      0.01      0.24         0.01
  YS02005653YS02005654        0.13      0.13      0.13      0.13         0.12
  YS02005654YS02005655        0.01      0.13      0.01      0.23         0.01
  YS02005658YS02005659        0.01      0.08      0.01      0.11         0.01
  YS02005661YS02005662        0.01      0.13      0.01      0.25         0.01
  YS02005664YS02005665        0.01      0.11      0.01      0.48         0.01
  YS02005667YS02005668        0.01      0.01      0.50      0.10         0.01
  YS02005647YS02005648        0.01      0.31      0.01      0.47         0.01
  YS02004312YS02004309        0.65      0.65      1.11      0.01         0.01
  YS02004314YS02004312        0.41      0.41      0.65      0.01         0.01
  YS02004316YS02004314        0.37      0.37      0.41      0.31         0.31
  YS02004320YS02004319        0.01      0.01      0.28      0.01         0.01
  YS6404YS6401                0.01      0.01      0.01      0.79         0.01
  YSB1132YSB1135              0.68      0.68      0.74      0.01         0.01
  YSB1135YSB1138              0.74      0.74      0.78      0.01         0.01
  YSB1138YSB1141              0.78      0.78      0.89      0.42         0.42
  YSB1141YSB1145              0.86      0.86      0.90      0.41         0.38
  YSB1148YSB1151              1.00      1.00      1.36      0.01         0.01
  YSB1151YSB1154              1.13      1.13      1.51      0.01         0.01
  YSB1154YSB6556              1.19      1.19      1.51      0.43         0.01
  YSB1128YSB1132              0.65      0.65      0.68      0.01         0.01
  YSB1145YSB1148              0.90      0.90      1.00      0.01         0.01
  YSB1198YSB1195              0.32      0.32      0.62      0.01         0.01
  YSB1195YSB1192              0.62      0.62      0.66      0.01         0.01
  YSB1192YSB1189              0.66      0.66      0.70      0.01         0.01
  YSB1186YSB1183              0.76      0.76      0.90      0.01         0.01
  YSB1183YSB1180              0.90      0.90      0.95      0.24         0.25
  YSB1180YSB1177              0.95      0.95      1.42      0.01         0.01
  YSB1177YSB1174              1.42      1.42      1.55      0.25         0.26
  YSB1174YSB1171              1.35      1.35      1.59      0.17         0.18
  YSB1171HS02004479           0.99      0.99      1.50      0.01         0.01
  YS02004307HS02004052        0.01      0.01      0.19      0.01         0.01
  HS02004881HS02006253        0.84      0.84      1.55      0.01         0.01
  WS0200404049WS6136          0.17      0.17      0.27      0.01         0.01
  HS02003125WS02003215        1.51      1.51      1.53      0.01         0.01
  YS02001793JiankangQianchi        0.01      0.01      2.02      0.01         0.01
  YS02001757CaochengTiaoxuchi        0.16      0.16      0.58      0.11         0.10
  WS02004041WS6409            1.33      1.33      1.39      1.39         1.33
  WSF200WS02003060            0.27      0.27      0.58      0.01         0.01
  HS02004053WS02004407        0.18      0.18      1.36      0.01         0.01
  HS02003036HS02003028        0.19      0.19      0.30      0.01         0.01
  
  
  ***************
  Pumping Summary
  ***************
  
  ---------------------------------------------------------------------------------------------------------
                                                  Min       Avg       Max     Total     Power    % Time Off
                        Percent   Number of      Flow      Flow      Flow    Volume     Usage    Pump Curve
  Pump                 Utilized   Start-Ups       LPS       LPS       LPS  10^6 ltr     Kw-hr    Low   High
  ---------------------------------------------------------------------------------------------------------
  CaochengSewagePump1     77.06           1      0.00    200.00    200.00     1.129      8.88    0.0    0.0
  CaochengSewagePump2     43.05           1      0.00    200.00    200.00     0.631      5.36    0.0    0.0
  CaochengRainPump1       39.81           1      0.00    683.00    683.00     1.991      3.14    0.0   36.2
  CaochengRainPump2       31.03           1      0.00    683.00    683.00     1.552      2.15    0.0   46.5
  JiankangSewagePump      73.96           1      0.00    300.00    300.00     1.625     25.31    0.0    0.0
  JiankangRainPump1       39.51           5      0.00   1000.00   1000.00     2.894     19.15    0.0    0.0
  JiankangRainPump2        0.00           0      0.00      0.00      0.00     0.000      0.00    0.0    0.0
  XierchiSewagePump1      91.80           1      0.00     95.00     95.00     0.639      3.95    0.0    0.0
  XierchiSewagePump2      76.21           1      0.00     95.00     95.00     0.530      3.11    0.0    0.0
  XierchiSewagePump3       0.00           0      0.00      0.00      0.00     0.000      0.00    0.0    0.0
  XierchiSewagePump4       0.00           0      0.00      0.00      0.00     0.000      0.00    0.0    0.0
  

  Analysis begun on:  Sun Oct 23 03:04:32 2022
  Analysis ended on:  Sun Oct 23 03:37:57 2022
  Total elapsed time: 00:33:25