
  EPA STORM WATER MANAGEMENT MODEL - VERSION 5.1 (Build 5.3.0.dev0)
  --------------------------------------------------------------

  WARNING 04: minimum elevation drop used for Conduit WS02004404WS02004405
  WARNING 03: negative offset ignored for Link YS02001904YS02001907
  
  *********************************************************
  NOTE: The summary statistics displayed in this report are
  based on results found at every computational time step,  
  not just on results from each reporting time step.
  *********************************************************
  
  ****************
  Analysis Options
  ****************
  Flow Units ............... LPS
  Process Models:
    Rainfall/Runoff ........ YES
    RDII ................... NO
    Snowmelt ............... NO
    Groundwater ............ NO
    Flow Routing ........... YES
    Ponding Allowed ........ NO
    Water Quality .......... NO
  Infiltration Method ...... HORTON
  Flow Routing Method ...... DYNWAVE
  Surcharge Method ......... EXTRAN
  Starting Date ............ 03/31/2017 00:00:00
  Ending Date .............. 03/31/2017 03:00:00
  Antecedent Dry Days ...... 8.0
  Report Time Step ......... 00:00:30
  Wet Time Step ............ 00:01:00
  Dry Time Step ............ 00:01:00
  Routing Time Step ........ 30.00 sec
  Variable Time Step ....... YES
  Maximum Trials ........... 8
  Number of Threads ........ 6
  Head Tolerance ........... 0.001500 m
  
  
  **************************        Volume         Depth
  Runoff Quantity Continuity     hectare-m            mm
  **************************     ---------       -------
  Total Precipitation ......         7.036        59.708
  Evaporation Loss .........         0.000         0.000
  Infiltration Loss ........         0.322         2.732
  Surface Runoff ...........         6.407        54.371
  Final Storage ............         0.311         2.638
  Continuity Error (%) .....        -0.056
  
  
  **************************        Volume        Volume
  Flow Routing Continuity        hectare-m      10^6 ltr
  **************************     ---------     ---------
  Dry Weather Inflow .......         0.172         1.720
  Wet Weather Inflow .......         6.407        64.066
  Groundwater Inflow .......         0.000         0.000
  RDII Inflow ..............         0.000         0.000
  External Inflow ..........         0.037         0.367
  External Outflow .........         3.715        37.152
  Flooding Loss ............         2.880        28.795
  Evaporation Loss .........         0.000         0.000
  Exfiltration Loss ........         0.000         0.000
  Initial Stored Volume ....         0.303         3.031
  Final Stored Volume ......         0.360         3.596
  Continuity Error (%) .....        -0.521
  
  
  *************************
  Highest Continuity Errors
  *************************
  Node YS02001884 (8.22%)
  Node YS02004320 (7.53%)
  Node YS6162 (5.58%)
  Node YS02001774 (3.76%)
  Node WS02003059 (2.57%)
  
  
  ***************************
  Time-Step Critical Elements
  ***************************
  Link YS02005655YS02005657 (33.37%)
  Link WS02004041WS6409 (31.99%)
  Link WS02006252WS02006251 (13.93%)
  Link WS02003073WS02003076 (1.97%)
  Link WSF207WS02004410 (1.51%)
  
  
  ********************************
  Highest Flow Instability Indexes
  ********************************
  Link WS02003200WS02003201 (60)
  Link WS02003201WS02003202 (54)
  Link WS02003215WS02003116 (52)
  Link WS02006238WS02006235 (52)
  Link WS02003115WS02003215 (49)
  
  
  *************************
  Routing Time Step Summary
  *************************
  Minimum Time Step           :     0.50 sec
  Average Time Step           :     1.05 sec
  Maximum Time Step           :    30.00 sec
  Percent in Steady State     :     0.00
  Average Iterations per Step :     5.75
  Percent Not Converging      :    36.94
  
  
  ***************************
  Subcatchment Runoff Summary
  ***************************
  
  ------------------------------------------------------------------------------------------------------------------------------
                            Total      Total      Total      Total     Imperv       Perv      Total       Total     Peak  Runoff
                           Precip      Runon       Evap      Infil     Runoff     Runoff     Runoff      Runoff   Runoff   Coeff
  Subcatchment                 mm         mm         mm         mm         mm         mm         mm    10^6 ltr      LPS
  ------------------------------------------------------------------------------------------------------------------------------
  sub0                      59.71       0.00       0.00       0.74      54.21       3.40      57.61        0.05    43.63   0.965
  sub1                      59.71       0.00       0.00       1.17      51.49       5.17      56.66        0.38   284.41   0.949
  sub2                      59.71       0.00       0.00       3.93      36.30      15.12      51.42        0.48   279.39   0.861
  sub3                      59.71       0.00       0.00       3.93      36.02      14.10      50.12        1.13   595.17   0.839
  sub4                      59.71       0.00       0.00       1.17      50.35       4.95      55.29        1.15   658.11   0.926
  sub5                      59.71       0.00       0.00       0.74      53.80       3.34      57.14        0.65   492.26   0.957
  sub6                      59.71       0.00       0.00       0.74      53.54       3.31      56.85        1.47  1026.67   0.952
  sub7                      59.71       0.00       0.00       0.96      52.89       4.31      57.20        0.19   162.44   0.958
  sub8                      59.71       0.00       0.00       0.96      52.81       4.29      57.11        0.36   294.74   0.956
  sub9                      59.71       0.00       0.00       0.96      52.79       4.29      57.08        0.27   220.19   0.956
  sub10                     59.71       0.00       0.00       0.85      53.28       3.81      57.09        0.63   488.03   0.956
  sub11                     59.71       0.00       0.00       0.85      53.42       3.83      57.25        0.67   544.63   0.959
  sub12                     59.71       0.00       0.00       1.38      50.66       6.22      56.89        0.50   445.80   0.953
  sub13                     59.71       0.00       0.00       3.61      38.31      15.14      53.45        0.63   446.67   0.895
  sub14                     59.71       0.00       0.00       0.96      52.78       4.29      57.06        0.54   433.02   0.956
  sub15                     59.71       0.00       0.00       3.19      40.57      13.37      53.94        0.93   648.43   0.903
  sub16                     59.71       0.00       0.00       3.50      38.99      15.10      54.09        0.57   438.17   0.906
  sub17                     59.71       0.00       0.00       3.40      39.55      14.61      54.16        0.46   355.63   0.907
  sub18                     59.71       0.00       0.00       0.96      52.94       4.32      57.26        0.46   395.82   0.959
  sub19                     59.71       0.00       0.00       3.29      40.12      14.12      54.24        0.17   130.86   0.908
  sub20                     59.71       0.00       0.00       0.96      52.88       4.31      57.19        0.40   334.95   0.958
  sub21                     59.71       0.00       0.00       1.27      51.21       5.74      56.95        0.29   253.17   0.954
  sub22                     59.71       0.00       0.00       4.57      33.11      18.63      51.74        3.27  2132.95   0.867
  sub23                     59.71       0.00       0.00       3.93      36.61      16.47      53.08        2.53  1784.17   0.889
  sub24                     59.71       0.00       0.00       1.49      50.03       6.66      56.68        2.03  1746.10   0.949
  sub25                     59.71       0.00       0.00       0.74      54.23       3.41      57.64        0.75   708.46   0.965
  sub26                     59.71       0.00       0.00       2.55      44.34      11.49      55.83        0.80   759.56   0.935
  sub27                     59.71       0.00       0.00       0.96      52.75       4.28      57.03        0.82   650.68   0.955
  sub28                     59.71       0.00       0.00       0.85      53.31       3.81      57.13        0.90   702.78   0.957
  sub29                     59.71       0.00       0.00       0.85      52.89       3.75      56.64        0.91   625.25   0.949
  sub30                     59.71       0.00       0.00       0.85      53.58       3.87      57.45        1.29  1169.50   0.962
  sub31                     59.71       0.00       0.00       1.80      48.37       8.12      56.49        1.20  1097.47   0.946
  sub32                     59.71       0.00       0.00       0.85      53.48       3.84      57.32        1.14   968.74   0.960
  sub33                     59.71       0.00       0.00       1.38      50.67       6.23      56.91        1.04   942.32   0.953
  sub34                     59.71       0.00       0.00       5.31      29.16      22.81      51.97        1.16   871.39   0.870
  sub35                     59.71       0.00       0.00       0.85      53.72       3.92      57.63        0.20   211.49   0.965
  sub36                     59.71       0.00       0.00       2.34      45.49      10.51      56.00        0.49   456.49   0.938
  sub37                     59.71       0.00       0.00       4.14      35.59      18.36      53.95        0.41   365.55   0.904
  sub38                     59.71       0.00       0.00       3.72      37.94      16.64      54.58        1.04   968.54   0.914
  sub39                     59.71       0.00       0.00       0.85      53.67       3.90      57.57        0.61   595.60   0.964
  sub40                     59.71       0.00       0.00       0.85      53.68       3.90      57.58        0.67   657.71   0.964
  sub41                     59.71       0.00       0.00       1.70      48.98       7.68      56.66        1.09  1024.07   0.949
  sub42                     59.71       0.00       0.00       0.96      53.08       4.37      57.46        0.58   555.00   0.962
  sub43                     59.71       0.00       0.00       4.03      36.12      17.40      53.52        0.44   339.88   0.896
  sub44                     59.71       0.00       0.00       0.74      53.92       3.35      57.27        0.65   513.24   0.959
  sub45                     59.71       0.00       0.00       1.80      48.20       7.96      56.17        1.03   825.89   0.941
  sub46                     59.71       0.00       0.00       6.69      21.58      28.09      49.67        0.35   222.51   0.832
  sub47                     59.71       0.00       0.00       0.85      53.49       3.85      57.34        0.44   374.51   0.960
  sub48                     59.71       0.00       0.00       0.96      52.89       4.31      57.20        0.44   368.64   0.958
  sub49                     59.71       0.00       0.00       0.85      53.39       3.83      57.22        0.52   421.77   0.958
  sub50                     59.71       0.00       0.00       0.85      53.40       3.83      57.23        0.40   325.63   0.959
  sub51                     59.71       0.00       0.00       0.85      53.53       3.85      57.38        0.27   236.59   0.961
  sub52                     59.71       0.00       0.00       0.74      53.94       3.35      57.30        0.62   497.45   0.960
  sub53                     59.71       0.00       0.00       0.85      53.48       3.84      57.33        0.58   491.88   0.960
  sub54                     59.71       0.00       0.00       0.74      53.78       3.33      57.11        0.34   257.30   0.957
  sub55                     59.71       0.00       0.00       0.85      53.30       3.81      57.11        0.46   355.48   0.956
  sub56                     59.71       0.00       0.00       2.02      46.63       8.53      55.16        0.78   520.27   0.924
  sub57                     59.71       0.00       0.00       3.29      39.95      13.66      53.61        0.35   234.22   0.898
  sub58                     59.71       0.00       0.00       7.75      15.73      28.52      44.25        1.64   744.64   0.741
  sub59                     59.71       0.00       0.00       8.18      13.39      26.70      40.08        0.92   364.69   0.671
  sub60                     59.71       0.00       0.00       1.27      51.13       5.70      56.83        0.75   617.28   0.952
  sub61                     59.71       0.00       0.00       1.80      48.25       8.00      56.25        1.03   853.31   0.942
  sub62                     59.71       0.00       0.00       0.85      53.24       3.80      57.04        1.56  1193.42   0.955
  sub67                     59.71       0.00       0.00       0.85      53.30       3.81      57.11        1.06   829.70   0.957
  sub68                     59.71       0.00       0.00       1.49      49.88       6.57      56.45        1.55  1224.70   0.946
  sub71                     59.71       0.00       0.00       0.85      52.94       3.76      56.71        1.48  1029.76   0.950
  sub72                     59.71       0.00       0.00       0.74      53.10       3.27      56.37        0.78   489.46   0.944
  sub73                     59.71       0.00       0.00       2.23      46.07      10.04      56.11        0.05    51.70   0.940
  sub74                     59.71       0.00       0.00       3.40      39.65      15.05      54.71        0.09    78.07   0.916
  sub75                     59.71       0.00       0.00       3.19      40.83      14.22      55.05        0.12   111.79   0.922
  sub76                     59.71       0.00       0.00       1.91      47.80       8.61      56.41        0.14   127.63   0.945
  sub77                     59.71       0.00       0.00       1.80      48.40       8.17      56.57        0.09    85.24   0.947
  sub78                     59.71       0.00       0.00       1.38      50.66       6.22      56.88        0.16   139.76   0.953
  sub79                     59.71       0.00       0.00       2.55      44.24      11.24      55.48        0.14   120.98   0.929
  sub80                     59.71       0.00       0.00       3.50      39.06      15.45      54.51        0.16   138.13   0.913
  sub81                     59.71       0.00       0.00       3.93      36.71      17.06      53.77        0.16   132.40   0.900
  sub82                     59.71       0.00       0.00       3.93      36.73      17.18      53.90        0.16   135.05   0.903
  sub83                     59.71       0.00       0.00       4.03      36.16      17.73      53.88        0.18   154.61   0.902
  sub84                     59.71       0.00       0.00       3.72      37.85      16.07      53.92        0.29   230.74   0.903
  sub85                     59.71       0.00       0.00       2.55      44.23      11.21      55.44        0.25   205.11   0.929
  sub86                     59.71       0.00       0.00       2.76      43.09      12.14      55.23        0.27   223.79   0.925
  sub87                     59.71       0.00       0.00       3.72      37.89      16.26      54.15        0.16   135.73   0.907
  sub88                     59.71       0.00       0.00       3.61      38.47      15.86      54.34        0.17   141.12   0.910
  sub89                     59.71       0.00       0.00       3.29      40.25      14.66      54.90        0.15   132.68   0.920
  sub90                     59.71       0.00       0.00       2.87      42.56      12.77      55.33        0.14   122.93   0.927
  sub91                     59.71       0.00       0.00       2.87      42.60      12.91      55.51        0.10    95.94   0.930
  sub92                     59.71       0.00       0.00       3.29      40.28      14.87      55.15        0.08    81.82   0.924
  sub93                     59.71       0.00       0.00       3.29      40.28      14.89      55.17        0.10    99.94   0.924
  sub94                     59.71       0.00       0.00       3.29      40.26      14.76      55.03        0.12   112.42   0.922
  sub95                     59.71       0.00       0.00       3.08      41.44      13.87      55.31        0.08    80.44   0.926
  sub96                     59.71       0.00       0.00       2.34      45.55      10.67      56.22        0.10   109.23   0.942
  sub97                     59.71       0.00       0.00       6.48      22.79      29.18      51.97        0.12   117.12   0.870
  sub98                     59.71       0.00       0.00       7.64      16.35      32.96      49.32        0.16   108.62   0.826
  sub99                     59.71       0.00       0.00       8.39      12.26      34.45      46.71        0.16    83.65   0.782
  sub100                    59.71       0.00       0.00       8.39      12.25      32.98      45.23        0.16    71.80   0.758
  sub101                    59.71       0.00       0.00       8.39      12.25      32.82      45.08        0.15    68.25   0.755
  sub102                    59.71       0.00       0.00       8.07      13.99      30.45      44.45        0.13    59.52   0.744
  sub103                    59.71       0.00       0.00       8.28      12.83      30.56      43.39        0.21    86.85   0.727
  sub104                    59.71       0.00       0.00       8.28      12.83      30.23      43.06        0.23    94.08   0.721
  sub105                    59.71       0.00       0.00       8.60      11.08      31.35      42.43        0.24    95.29   0.711
  sub106                    59.71       0.00       0.00       8.39      12.25      31.90      44.15        0.23    96.81   0.739
  sub107                    59.71       0.00       0.00       8.60      11.09      33.82      44.91        0.32   139.77   0.752
  sub108                    59.71       0.00       0.00       8.71      10.51      35.95      46.46        0.43   218.48   0.778
  sub109                    59.71       0.00       0.00       6.80      21.00      28.64      49.65        0.71   456.45   0.832
  sub110                    59.71       0.00       0.00       1.91      47.74       8.53      56.27        1.18  1031.04   0.942
  sub111                    59.71       0.00       0.00       2.76      43.10      12.18      55.29        0.47   405.66   0.926
  sub112                    59.71       0.00       0.00       2.23      46.02       9.93      55.95        0.44   389.81   0.937
  sub113                    59.71       0.00       0.00       1.49      50.09       6.70      56.78        0.39   352.52   0.951
  sub114                    59.71       0.00       0.00       1.38      50.67       6.23      56.90        0.38   340.30   0.953
  sub115                    59.71       0.00       0.00       1.27      51.24       5.75      57.00        0.42   375.90   0.955
  sub116                    59.71       0.00       0.00       4.25      34.94      18.16      53.10        0.10    74.15   0.889
  sub117                    59.71       0.00       0.00       4.35      34.38      18.77      53.15        0.24   189.59   0.890
  
  
  ******************
  Node Depth Summary
  ******************
  
  ---------------------------------------------------------------------------------
                                 Average  Maximum  Maximum  Time of Max    Reported
                                   Depth    Depth      HGL   Occurrence   Max Depth
  Node                 Type       Meters   Meters   Meters  days hr:min      Meters
  ---------------------------------------------------------------------------------
  WS02001211           JUNCTION     0.91     4.02     8.86     0  00:27        1.84
  WS02001212           JUNCTION     0.67     2.70     7.77     0  00:28        1.59
  WS02001213           JUNCTION     0.91     2.92     7.69     0  00:28        1.95
  WS02003069           JUNCTION     0.86     3.20     7.79     0  00:26        1.69
  WS02003072           JUNCTION     0.95     1.98     6.35     0  00:26        1.58
  WS02003073           JUNCTION     1.17     1.71     5.77     0  00:30        1.71
  WS02003076           JUNCTION     0.91     1.36     5.59     0  00:30        1.36
  WS02003060           JUNCTION     0.75     1.97     6.90     0  00:28        1.68
  WS02003066           JUNCTION     0.46     1.22     6.77     0  00:29        1.19
  WS02003059           JUNCTION     0.98     2.32     7.00     0  00:28        1.93
  WS02003115           JUNCTION     1.55     2.76     9.62     0  00:15        2.73
  WS02003116           JUNCTION     1.69     3.03     9.74     0  00:14        2.94
  WS02003118           JUNCTION     1.68     2.90     9.52     0  00:14        2.90
  WS02003215           JUNCTION     1.57     2.80     9.66     0  00:18        2.80
  WS02003110           JUNCTION     1.24     2.54     9.79     0  00:16        2.29
  WS02003111           JUNCTION     1.34     2.35     9.44     0  00:15        2.35
  WS02005155           JUNCTION     1.22     2.66     9.97     0  00:16        2.34
  WS02005154           JUNCTION     1.02     2.67    10.30     0  00:16        2.16
  WS02005193           JUNCTION     1.28     3.22    11.04     0  00:19        3.08
  WS02005196           JUNCTION     1.25     3.31    11.16     0  00:19        3.06
  WS02003067           JUNCTION     0.81     1.66     6.98     0  00:30        1.50
  WS02004401           JUNCTION     1.35     2.57     8.57     0  00:21        2.47
  WS02004402           JUNCTION     1.35     2.57     8.53     0  00:21        2.47
  WS02004403           JUNCTION     1.34     2.57     8.50     0  00:21        2.47
  WS02004404           JUNCTION     1.39     2.59     8.44     0  00:21        2.54
  WS02004406           JUNCTION     1.35     3.30     9.13     0  00:19        2.50
  WS02004409           JUNCTION     1.10     2.66     8.43     0  00:21        2.31
  WS02004410           JUNCTION     1.03     2.61     8.33     0  00:21        2.11
  WS02004411           JUNCTION     0.96     2.39     8.07     0  00:21        1.89
  WS02004412           JUNCTION     0.88     1.98     7.62     0  00:21        1.65
  WS02004413           JUNCTION     0.95     2.43     7.90     0  00:20        1.56
  WS02004405           JUNCTION     1.37     2.60     8.45     0  00:19        2.52
  WS02006109           JUNCTION     1.70     2.64     9.26     0  00:19        2.64
  WS02006110           JUNCTION     1.55     2.76     9.34     0  00:19        2.48
  WS02006111           JUNCTION     0.98     2.68     9.39     0  00:19        1.99
  WS02006112           JUNCTION     1.62     2.68     8.56     0  00:00        2.68
  WS02006113           JUNCTION     1.05     2.73     9.62     0  00:19        2.00
  WS02006115           JUNCTION     1.30     3.26     9.40     0  00:19        2.39
  WS02006116           JUNCTION     1.35     3.35     9.39     0  00:19        2.47
  WS02006230           JUNCTION     1.74     2.65     9.39     0  00:17        2.65
  WS02006231           JUNCTION     1.35     2.24     9.36     0  00:17        2.19
  WS02006232           JUNCTION     1.41     2.18     9.22     0  00:17        2.18
  WS02006234           JUNCTION     1.26     1.96     9.12     0  00:17        1.96
  WS02006235           JUNCTION     1.25     2.00     9.16     0  00:17        1.93
  WS02006238           JUNCTION     1.26     2.15     9.29     0  00:17        1.93
  WS02006240           JUNCTION     1.09     2.10     9.39     0  00:18        1.62
  WS02006242           JUNCTION     1.08     1.55     8.82     0  00:18        1.55
  WS02006243           JUNCTION     0.94     1.48     8.90     0  00:18        1.36
  WS02006245           JUNCTION     0.89     1.56     9.04     0  00:18        1.26
  WS02006247           JUNCTION     0.88     1.47     8.97     0  00:18        1.23
  WS02006248           JUNCTION     0.80     1.10     8.69     0  00:18        1.10
  WS02006249           JUNCTION     0.81     1.09     8.69     0  00:18        1.09
  WS02006239           JUNCTION     1.18     2.03     9.24     0  00:17        1.78
  WS02006251           JUNCTION     1.21     2.21     9.88     0  00:24        2.21
  WS02006252           JUNCTION     0.84     1.50     9.74     0  00:19        1.50
  WS02006253           JUNCTION     1.45     3.52    11.16     0  00:19        3.25
  WS02006256           JUNCTION     1.64     2.35     9.28     0  00:14        2.35
  WS02004138           JUNCTION     0.12     0.14     7.39     0  00:33        0.14
  WS02004139           JUNCTION     0.84     3.88     8.79     0  00:27        1.77
  WS02004407           JUNCTION     0.75     2.97     9.28     0  00:21        1.97
  WS02006228           JUNCTION     1.87     3.03     9.68     0  00:27        3.03
  WS02006229           JUNCTION     1.95     3.23     9.92     0  00:25        3.22
  WS02006280           JUNCTION     0.81     1.75    10.02     0  00:25        1.74
  WS02006284           JUNCTION     1.04     1.95    10.35     0  00:25        1.95
  WS02006287           JUNCTION     0.79     1.75    10.70     0  00:25        1.74
  WS02003091           JUNCTION     2.29     4.43    10.23     0  00:00        3.91
  WS02003203           JUNCTION     2.24     3.83     9.82     0  00:00        3.83
  WS6145               JUNCTION     0.40     2.36    10.46     0  00:26        2.29
  WS6147               JUNCTION     0.33     2.28    10.55     0  00:26        2.16
  WS6150               JUNCTION     0.33     2.25    10.58     0  00:26        2.12
  WS6152               JUNCTION     0.34     2.20    10.54     0  00:26        2.13
  WS6155               JUNCTION     0.30     2.10    10.50     0  00:26        2.10
  WS6156               JUNCTION     0.28     2.05    10.52     0  00:26        2.05
  WS6136               JUNCTION     0.33     1.90    10.85     0  00:27        1.90
  WS6140               JUNCTION     0.44     2.46    10.40     0  00:30        2.43
  WS6142               JUNCTION     0.40     2.33    10.41     0  00:27        2.30
  WS6325               JUNCTION     0.61     2.74    10.39     0  00:29        2.72
  WS6327               JUNCTION     0.51     2.58    10.39     0  00:30        2.56
  WS6329               JUNCTION     0.47     2.51    10.39     0  00:30        2.48
  WS6332               JUNCTION     0.41     2.51    10.54     0  00:25        2.34
  WS6158               JUNCTION     0.26     2.05    10.59     0  00:26        1.97
  WS6335               JUNCTION     0.40     2.60    10.67     0  00:25        2.30
  WS6338               JUNCTION     0.35     2.55    10.75     0  00:25        2.18
  WS6340               JUNCTION     0.30     2.50    10.84     0  00:25        2.04
  WS6342               JUNCTION     0.24     2.50    11.10     0  00:25        1.78
  WS6135               JUNCTION     0.75     2.89    10.39     0  00:30        2.88
  WS6396               JUNCTION     0.47     2.06     9.61     0  00:30        2.01
  WS6399               JUNCTION     0.29     1.44     8.87     0  00:30        1.37
  WS02003082           JUNCTION     1.17     2.04     7.11     0  00:16        2.04
  WS02003077           JUNCTION     0.41     0.85     5.85     0  00:30        0.84
  WS02003080           JUNCTION     0.81     2.24     7.18     0  00:13        1.30
  WS02003083           JUNCTION     1.50     2.70     7.73     0  00:12        2.63
  WS02003084           JUNCTION     1.60     2.88     7.97     0  00:16        2.87
  WS02003085           JUNCTION     1.65     3.01     8.18     0  00:16        3.01
  WS02003086           JUNCTION     1.85     3.28     8.48     0  00:16        3.27
  WS02003087           JUNCTION     2.07     3.56     8.78     0  00:16        3.55
  WS02003088           JUNCTION     2.21     4.14     9.43     0  00:00        4.07
  WS02003089           JUNCTION     2.28     4.34     9.80     0  00:00        4.02
  WS02003090           JUNCTION     2.46     4.18     9.61     0  00:15        4.08
  WS02003081           JUNCTION     0.97     2.20     7.24     0  00:13        1.60
  WS02003122           JUNCTION     1.87     3.30     9.67     0  00:14        3.10
  WS02003187           JUNCTION     1.90     3.11     9.44     0  00:14        3.11
  WS02003188           JUNCTION     1.89     2.97     9.23     0  00:14        2.97
  WS02003190           JUNCTION     1.89     2.84     9.04     0  00:14        2.84
  WS02003193           JUNCTION     1.86     2.85     9.09     0  00:14        2.85
  WS02003195           JUNCTION     1.87     2.93     9.18     0  00:14        2.93
  WS02003196           JUNCTION     1.97     3.31     9.49     0  00:14        3.11
  WS02003198           JUNCTION     1.98     3.88    10.06     0  00:13        3.19
  WS02003200           JUNCTION     1.71     3.14     9.57     0  00:14        2.93
  WS02003201           JUNCTION     1.95     3.22     9.36     0  00:14        3.22
  WS02003202           JUNCTION     2.08     4.17    10.23     0  00:00        3.48
  WS02004041           JUNCTION     0.59     0.98     5.35     0  00:30        0.98
  WSA6400              JUNCTION     0.99     2.50     8.34     0  00:30        2.42
  WS6400               JUNCTION     0.43     1.77     8.43     0  00:30        1.69
  WSF208               JUNCTION     0.69     2.24     8.33     0  00:21        1.95
  WSF207               JUNCTION     0.58     2.16     8.30     0  00:21        1.70
  WSF206               JUNCTION     0.65     2.10     8.03     0  00:21        1.74
  WSF205               JUNCTION     0.59     1.78     7.69     0  00:21        1.61
  WSF204               JUNCTION     1.16     2.37     7.52     0  00:20        2.16
  WSF203               JUNCTION     0.55     1.51     7.22     0  00:21        1.37
  WSF202               JUNCTION     0.47     1.24     6.97     0  00:29        1.20
  WSF201               JUNCTION     0.40     1.09     6.82     0  00:29        1.06
  WSF200               JUNCTION     0.57     1.67     6.91     0  00:28        1.46
  HS02004901           JUNCTION     0.66     1.42    11.24     0  00:22        1.42
  HS02004881           JUNCTION     0.52     2.15    11.18     0  00:24        2.15
  HS02004876           JUNCTION     0.63     2.26    11.29     0  00:24        2.26
  HS02004870           JUNCTION     0.53     2.10    11.39     0  00:24        2.10
  HS02004862           JUNCTION     0.54     2.00    11.38     0  00:24        2.00
  HS02004856           JUNCTION     0.57     2.07    11.50     0  00:24        2.07
  HS02004852           JUNCTION     0.51     2.12    11.63     0  00:24        2.01
  HS02004848           JUNCTION     0.50     2.05    11.65     0  00:24        1.94
  HS02004842           JUNCTION     0.81     2.22    11.49     0  00:24        2.22
  HS02004837           JUNCTION     0.52     2.04    11.62     0  00:22        1.91
  HS02004830           JUNCTION     0.58     2.03    11.50     0  00:22        1.98
  HS02004824           JUNCTION     0.61     2.01    11.41     0  00:22        2.01
  HS02004817           JUNCTION     1.09     2.43    11.28     0  00:24        2.41
  HS02004807           JUNCTION     0.77     1.92    11.09     0  00:22        1.92
  HS02004802           JUNCTION     0.78     1.81    10.93     0  00:25        1.80
  HS02004799           JUNCTION     0.85     1.76    10.97     0  00:22        1.76
  HS02004792           JUNCTION     0.68     1.60    11.12     0  00:20        1.60
  HS02004788           JUNCTION     0.52     1.42    11.32     0  00:22        1.42
  HS02004785           JUNCTION     0.56     1.49    11.39     0  00:22        1.40
  HS02004777           JUNCTION     0.68     1.48    11.28     0  00:22        1.48
  HS02004770           JUNCTION     0.66     1.42    11.25     0  00:22        1.42
  HS02004480           JUNCTION     0.76     1.67    10.91     0  00:24        1.66
  HS02004479           JUNCTION     0.80     1.69    10.89     0  00:24        1.68
  HS02004478           JUNCTION     0.66     1.60    10.83     0  00:25        1.59
  HS02004053           JUNCTION     0.24     1.90    10.67     0  00:25        1.10
  HS02004052           JUNCTION     0.30     1.39    11.04     0  00:25        1.38
  HS02004049           JUNCTION     0.18     0.86    11.55     0  00:30        0.86
  HS02004048           JUNCTION     0.43     1.70    12.60     0  00:24        1.70
  HS02004046           JUNCTION     0.41     1.73    13.45     0  00:25        1.57
  HS02004043           JUNCTION     0.20     1.71    14.41     0  00:25        1.45
  HS02004041           JUNCTION     0.11     0.37    15.81     0  00:27        0.37
  HS02004038           JUNCTION     0.11     0.34    19.02     0  00:27        0.34
  HS02004036           JUNCTION     0.00     0.00    22.46     0  00:00        0.00
  HS02004034           JUNCTION     0.00     0.00    26.83     0  00:00        0.00
  HS02004028           JUNCTION     0.16     0.51    37.36     0  00:24        0.51
  HS02004027           JUNCTION     0.12     0.34    36.47     0  00:24        0.34
  HS02004026           JUNCTION     0.13     0.35    35.75     0  00:24        0.35
  HS02004024           JUNCTION     0.13     0.42    34.63     0  00:24        0.40
  HS02004022           JUNCTION     0.19     0.80    33.84     0  00:24        0.80
  HS02004021           JUNCTION     0.23     0.81    32.54     0  00:22        0.81
  HS02004019           JUNCTION     0.29     0.80    31.76     0  00:21        0.80
  HS02004018           JUNCTION     0.19     0.60    33.81     0  00:24        0.60
  HS02004017           JUNCTION     0.18     0.53    34.37     0  00:24        0.53
  HS02004013           JUNCTION     0.11     0.41    35.54     0  00:27        0.41
  HS02004010           JUNCTION     0.04     0.16    38.03     0  00:27        0.16
  HS02003174           JUNCTION     0.16     0.44     5.97     0  00:28        0.44
  HS02003171           JUNCTION     0.17     0.49     6.17     0  00:27        0.49
  HS02003170           JUNCTION     0.21     0.46     6.91     0  00:28        0.46
  HS02003168           JUNCTION     0.11     0.30     6.80     0  00:28        0.30
  HS02003166           JUNCTION     0.20     0.47     6.94     0  00:28        0.47
  HS02003162           JUNCTION     0.18     0.42    30.67     0  00:22        0.42
  HS02003160           JUNCTION     0.14     0.37    28.42     0  00:26        0.37
  HS02003150           JUNCTION     0.14     0.39    26.41     0  00:26        0.39
  HS02003148           JUNCTION     0.16     0.49    22.23     0  00:26        0.49
  HS02003145           JUNCTION     0.22     0.81    14.68     0  00:25        0.81
  HS02003143           JUNCTION     0.31     0.80    13.27     0  00:19        0.80
  HS02003138           JUNCTION     0.26     0.44     6.94     0  01:13        0.44
  HS02003136           JUNCTION     1.12     2.28    10.00     0  00:00        2.28
  HS02003125           JUNCTION     1.16     2.40     9.85     0  00:19        2.32
  HS02003122           JUNCTION     1.21     2.54     9.97     0  00:18        2.45
  HS02003119           JUNCTION     1.00     2.60    10.32     0  00:19        2.53
  HS02003116           JUNCTION     0.75     2.43    10.55     0  00:19        2.43
  HS02003111           JUNCTION     0.45     0.83     9.84     0  00:27        0.83
  HS02003108           JUNCTION     0.36     1.23    10.34     0  00:22        0.78
  HS02003100           JUNCTION     0.25     0.85    10.08     0  00:25        0.71
  HS02003088           JUNCTION     0.20     0.83    10.12     0  00:26        0.70
  HS02003084           JUNCTION     0.09     0.57    10.00     0  00:27        0.56
  HS02003079           JUNCTION     0.06     0.49    10.01     0  00:27        0.49
  HS02003077           JUNCTION     0.01     0.28    10.02     0  00:27        0.28
  HS02003065           JUNCTION     0.60     1.80    11.04     0  00:18        1.61
  HS02003056           JUNCTION     0.62     1.90    10.84     0  00:18        1.70
  HS02003053           JUNCTION     0.45     1.66    10.96     0  00:18        1.55
  HS02003042           JUNCTION     0.31     1.69    11.35     0  00:20        1.32
  HS02003039           JUNCTION     0.34     1.82    11.47     0  00:24        1.41
  HS02003036           JUNCTION     0.18     1.41    11.47     0  00:24        1.17
  HS02003028           JUNCTION     0.28     1.40    11.14     0  00:24        1.40
  HS02003021           JUNCTION     0.31     1.55    10.92     0  00:23        1.49
  HS02003018           JUNCTION     0.32     1.48    10.69     0  00:23        1.48
  HS02003017           JUNCTION     0.32     1.48    10.64     0  00:23        1.48
  HS02003013           JUNCTION     0.31     1.47    10.52     0  00:23        1.42
  HS02003010           JUNCTION     0.33     1.46    10.27     0  00:23        1.29
  HS02003007           JUNCTION     0.29     1.33     9.94     0  00:23        1.09
  HS02003004           JUNCTION     0.35     1.12     9.44     0  00:22        0.98
  HS02003001           JUNCTION     0.10     0.29     8.58     0  00:27        0.29
  YS02001738           JUNCTION     0.00     0.00     8.89     0  00:00        0.00
  YS02001739           JUNCTION     0.00     0.00     8.37     0  00:00        0.00
  YS02001742           JUNCTION     0.00     0.00     8.49     0  00:00        0.00
  YS02001745           JUNCTION     0.12     0.33     7.85     0  00:27        0.33
  YS02001748           JUNCTION     0.14     0.41     7.49     0  00:29        0.41
  YS02001751           JUNCTION     0.14     0.60     7.48     0  00:30        0.59
  YS02001754           JUNCTION     0.16     0.90     7.51     0  00:29        0.88
  YS02001762           JUNCTION     0.34     1.54     7.94     0  00:27        1.30
  YS02001765           JUNCTION     0.33     1.60     8.05     0  00:27        1.30
  YS02001767           JUNCTION     0.34     1.72     8.21     0  00:27        1.33
  YS02001770           JUNCTION     0.39     1.89     8.38     0  00:27        1.45
  YS02001774           JUNCTION     0.47     1.99     8.41     0  00:27        1.52
  YS02001779           JUNCTION     0.23     1.68     8.37     0  00:27        1.26
  YS02001882           JUNCTION     0.69     1.83     8.55     0  00:23        1.64
  YS02001884           JUNCTION     0.79     1.93     8.55     0  00:23        1.75
  YS02001759           JUNCTION     0.34     1.37     7.73     0  00:27        1.27
  YS02001887           JUNCTION     0.87     1.90     8.43     0  00:23        1.82
  YS02001890           JUNCTION     0.89     1.81     8.32     0  00:23        1.81
  YS02001898           JUNCTION     0.66     1.77     8.51     0  00:23        1.77
  YS02001901           JUNCTION     0.77     1.83     8.44     0  00:24        1.81
  YS02001904           JUNCTION     0.75     1.72     8.35     0  00:24        1.70
  YS02001907           JUNCTION     1.07     1.96     8.25     0  00:24        1.96
  YS02001910           JUNCTION     0.89     2.06     8.57     0  00:24        2.05
  YS02001915           JUNCTION     0.71     2.00     8.72     0  00:24        1.97
  YS02001918           JUNCTION     0.48     1.81     8.88     0  00:24        1.60
  YS02001920           JUNCTION     0.56     2.14     9.15     0  00:24        1.70
  YS02001923           JUNCTION     0.39     2.03     9.29     0  00:25        1.48
  YS02001926           JUNCTION     0.39     1.90     9.35     0  00:25        1.41
  YS02001929           JUNCTION     0.26     1.78     9.47     0  00:26        1.38
  YS02001932           JUNCTION     0.17     1.77     9.57     0  00:26        1.77
  YS02001935           JUNCTION     0.13     1.75     9.68     0  00:26        1.28
  YS02001757           JUNCTION     0.33     1.23     7.49     0  00:28        1.20
  YS02001895           JUNCTION     0.66     1.75     8.50     0  00:23        1.67
  YS02005679           JUNCTION     0.00     0.00    10.24     0  00:00        0.00
  YS02005559           JUNCTION     0.08     0.16    10.11     0  00:28        0.16
  YS02005651           JUNCTION     0.05     0.16    10.93     0  00:27        0.16
  YS02005670           JUNCTION     0.06     0.18    10.64     0  00:27        0.18
  YS02005547           JUNCTION     0.04     0.13    10.67     0  00:26        0.13
  YS02005549           JUNCTION     0.06     0.19    11.10     0  00:26        0.19
  YS02005550           JUNCTION     0.08     0.20    10.83     0  00:27        0.20
  YS02005551           JUNCTION     0.05     0.12    10.49     0  00:27        0.12
  YS02005553           JUNCTION     0.10     0.22    10.58     0  00:28        0.22
  YS02005554           JUNCTION     0.05     0.11    10.35     0  00:28        0.11
  YS02005556           JUNCTION     0.11     0.22    10.27     0  00:28        0.22
  YS02005557           JUNCTION     0.06     0.11    10.08     0  00:28        0.11
  YS02005560           JUNCTION     0.06     0.12     9.87     0  00:28        0.12
  YS02005562           JUNCTION     0.10     0.20     9.94     0  00:27        0.20
  YS02005563           JUNCTION     0.06     0.11     9.78     0  00:27        0.11
  YS02005565           JUNCTION     0.09     0.17     9.87     0  00:28        0.17
  YS02005566           JUNCTION     0.08     0.14     9.53     0  00:28        0.14
  YS02005568           JUNCTION     0.11     0.21     9.71     0  00:28        0.21
  YS02005569           JUNCTION     0.08     0.16     9.48     0  00:28        0.16
  YS02005598           JUNCTION     0.19     1.07    10.91     0  00:24        1.07
  YS02005600           JUNCTION     0.17     1.02    10.68     0  00:24        1.02
  YS02005602           JUNCTION     0.41     2.15    10.43     0  00:24        2.15
  YS02005603           JUNCTION     0.13     1.18     9.30     0  00:24        0.58
  YS02005609           JUNCTION     0.07     0.18     9.08     0  00:27        0.18
  YS02005653           JUNCTION     0.09     0.51    11.48     0  00:26        0.45
  YS02005654           JUNCTION     0.10     0.50    11.25     0  00:26        0.39
  YS02005655           JUNCTION     0.04     0.13    10.76     0  00:27        0.13
  YS02005595           JUNCTION     0.28     1.36    11.04     0  00:22        1.36
  YS02005658           JUNCTION     0.08     0.25    11.15     0  00:27        0.25
  YS02005659           JUNCTION     0.05     0.13    10.79     0  00:27        0.13
  YS02005661           JUNCTION     0.10     0.45    11.16     0  00:25        0.40
  YS02005662           JUNCTION     0.04     0.12    10.74     0  00:27        0.12
  YS02005664           JUNCTION     0.11     0.48    11.06     0  00:25        0.39
  YS02005665           JUNCTION     0.04     0.11    10.67     0  00:27        0.11
  YS02005668           JUNCTION     0.04     0.12    10.29     0  00:27        0.12
  YS02005667           JUNCTION     0.26     0.68    10.69     0  00:26        0.67
  YS02005571           JUNCTION     0.12     0.24     9.73     0  00:28        0.24
  YS02005572           JUNCTION     0.09     0.17     9.53     0  00:28        0.17
  YS02005576           JUNCTION     0.10     0.19     9.94     0  00:28        0.19
  YS02005577           JUNCTION     0.09     0.17     9.65     0  00:28        0.17
  YS02005579           JUNCTION     0.17     0.45    10.08     0  00:25        0.43
  YS02005580           JUNCTION     0.11     0.22     9.75     0  00:28        0.22
  YS02005582           JUNCTION     0.26     0.86    10.94     0  00:26        0.86
  YS02005583           JUNCTION     0.13     0.82    10.82     0  00:26        0.70
  YS02005612           JUNCTION     0.37     1.18     9.31     0  00:27        1.18
  YS02005615           JUNCTION     0.04     0.13    11.62     0  00:26        0.13
  YS02005616           JUNCTION     0.03     0.10    10.93     0  00:26        0.10
  YS02005618           JUNCTION     0.06     0.20    11.06     0  00:26        0.20
  YS02005619           JUNCTION     0.04     0.12    10.67     0  00:26        0.12
  YS02005621           JUNCTION     0.07     0.24    11.35     0  00:26        0.24
  YS02005622           JUNCTION     0.03     0.10    11.06     0  00:26        0.10
  YS02005625           JUNCTION     0.03     0.09    11.11     0  00:26        0.09
  YS02005627           JUNCTION     0.08     0.26    11.19     0  00:26        0.25
  YS02005628           JUNCTION     0.03     0.10    11.00     0  00:26        0.10
  YS02005630           JUNCTION     0.08     0.26    11.33     0  00:27        0.26
  YS02005631           JUNCTION     0.04     0.11    10.99     0  00:27        0.11
  YS02005633           JUNCTION     0.07     0.23    11.36     0  00:27        0.23
  YS02005634           JUNCTION     0.04     0.12    10.96     0  00:27        0.12
  YS02005636           JUNCTION     0.08     0.28    11.28     0  00:27        0.28
  YS02005637           JUNCTION     0.05     0.14    10.90     0  00:27        0.14
  YS02005639           JUNCTION     0.07     0.23    10.86     0  00:27        0.23
  YS02005640           JUNCTION     0.05     0.14    10.46     0  00:27        0.14
  YS02005642           JUNCTION     0.06     0.18    11.01     0  00:27        0.18
  YS02005644           JUNCTION     0.11     0.59    11.70     0  00:27        0.59
  YS02005645           JUNCTION     0.06     0.19    11.00     0  00:27        0.19
  YS02005647           JUNCTION     0.18     0.97    11.86     0  00:27        0.97
  YS02005648           JUNCTION     0.07     0.22    11.01     0  00:27        0.22
  YS02005650           JUNCTION     0.11     0.47    11.36     0  00:25        0.46
  YS02005671           JUNCTION     0.03     0.09    10.31     0  00:27        0.09
  YS02005673           JUNCTION     0.06     0.19    10.55     0  00:27        0.19
  YS02005674           JUNCTION     0.04     0.13    10.02     0  00:27        0.13
  YS02005676           JUNCTION     0.00     0.00    10.24     0  00:00        0.00
  YS02005680           JUNCTION     0.04     0.12    10.22     0  00:27        0.12
  YS02005682           JUNCTION     0.00     0.00    10.06     0  00:00        0.00
  YS02005683           JUNCTION     0.03     0.08     9.97     0  00:27        0.08
  YS02005376           JUNCTION     0.58     1.01    11.10     0  00:10        1.01
  YS02005378           JUNCTION     1.04     1.62    11.14     0  00:12        1.62
  YS02005381           JUNCTION     0.94     1.57    11.20     0  00:08        1.57
  YS02005624           JUNCTION     0.20     0.41    11.29     0  00:26        0.41
  YS02005384           JUNCTION     0.31     1.20    10.85     0  00:12        0.53
  YS02005677           JUNCTION     0.04     0.14    10.22     0  00:27        0.14
  YSB1105              JUNCTION     0.25     0.53    10.01     0  00:26        0.51
  YSB1106              JUNCTION     0.22     1.52    11.36     0  00:26        0.70
  YSB1109              JUNCTION     0.28     1.53    11.48     0  00:26        0.98
  YSB1112              JUNCTION     0.28     1.88    12.02     0  00:26        1.16
  YSB1115              JUNCTION     0.26     1.90    12.20     0  00:26        1.17
  YSB1118              JUNCTION     0.27     1.80    12.34     0  00:26        1.38
  YSB1121              JUNCTION     0.33     1.70    12.37     0  00:26        1.70
  YSB1124              JUNCTION     0.21     1.60    12.43     0  00:26        1.55
  YSB1128              JUNCTION     0.41     1.85    12.43     0  00:22        1.85
  YSB1132              JUNCTION     0.46     1.90    12.35     0  00:22        1.90
  YSB1228              JUNCTION     0.04     0.14    10.99     0  00:26        0.14
  YSB1202              JUNCTION     0.73     1.50    12.39     0  00:20        1.46
  YSB1135              JUNCTION     0.55     1.97    12.23     0  00:22        1.95
  YSB1138              JUNCTION     0.64     1.90    12.07     0  00:22        1.90
  YSB1141              JUNCTION     0.67     2.00    11.83     0  00:22        1.89
  YSB1145              JUNCTION     0.68     2.00    11.69     0  00:22        1.87
  YSB1148              JUNCTION     0.73     2.00    11.50     0  00:22        1.90
  YSB1151              JUNCTION     0.89     2.10    11.33     0  00:22        2.00
  YSB1154              JUNCTION     1.04     2.10    11.16     0  00:22        2.10
  YSB1198              JUNCTION     0.17     1.60    12.39     0  00:23        1.17
  YSB1192              JUNCTION     0.36     1.90    12.17     0  00:23        1.69
  YSB6556              JUNCTION     0.88     1.80    10.97     0  00:22        1.80
  YSB1205              JUNCTION     0.91     1.65    12.35     0  00:20        1.65
  YSB1209              JUNCTION     0.90     1.65    12.22     0  00:20        1.65
  YSB1212              JUNCTION     0.80     1.60    12.13     0  00:20        1.60
  YSB1215              JUNCTION     0.81     1.70    12.05     0  00:20        1.69
  YSB1218              JUNCTION     0.82     1.75    11.94     0  00:25        1.75
  YSB1221              JUNCTION     0.79     1.81    11.78     0  00:20        1.58
  YSB1224              JUNCTION     0.72     1.33    11.18     0  00:32        1.33
  YSB1195              JUNCTION     0.31     1.90    12.28     0  00:23        1.59
  YSB1189              JUNCTION     0.44     1.80    11.96     0  00:23        1.80
  YSB1186              JUNCTION     0.50     1.94    11.81     0  00:23        1.74
  YSB1183              JUNCTION     0.62     2.05    11.64     0  00:23        1.88
  YSB1180              JUNCTION     0.63     1.95    11.46     0  00:23        1.83
  YSB1177              JUNCTION     0.87     2.05    11.24     0  00:23        2.01
  YSB1174              JUNCTION     0.93     1.95    11.06     0  00:23        1.95
  YSB1171              JUNCTION     1.10     1.95    10.85     0  00:22        1.95
  YS02006553           JUNCTION     1.07     2.01     8.29     0  00:24        1.97
  YS02006561           JUNCTION     0.36     1.14     7.80     0  00:24        0.91
  YS02006562           JUNCTION     0.84     1.86     8.37     0  00:24        1.78
  YS02006556           JUNCTION     1.04     2.03     8.34     0  00:24        1.96
  YS02006558           JUNCTION     1.08     2.09     8.35     0  00:24        2.02
  YS6132               JUNCTION     0.48     2.78    10.10     0  00:27        1.89
  YS6137               JUNCTION     0.25     2.48    10.28     0  00:30        1.27
  YS6189               JUNCTION     0.34     2.53    10.32     0  00:30        1.46
  YS6184               JUNCTION     0.33     2.28    10.17     0  00:28        1.55
  YS6179               JUNCTION     0.28     2.46    10.44     0  00:28        1.50
  YS6176               JUNCTION     0.20     2.40    10.60     0  00:28        1.30
  YS6171               JUNCTION     0.21     1.86    10.27     0  00:28        1.13
  YS6168               JUNCTION     0.22     2.00    10.51     0  00:28        1.06
  YS6164               JUNCTION     0.08     1.90    10.63     0  00:28        0.79
  YS6162               JUNCTION     0.14     2.10    10.75     0  00:27        0.86
  YS6187               JUNCTION     0.37     2.51    10.29     0  00:30        1.56
  YS6363               JUNCTION     0.29     3.03    10.82     0  00:30        1.27
  YS6360               JUNCTION     0.39     2.80    10.60     0  00:27        1.45
  YS6354               JUNCTION     0.37     2.60    10.75     0  00:27        1.81
  YS6351               JUNCTION     0.45     2.50    10.71     0  00:27        2.12
  YS6350               JUNCTION     0.50     2.50    10.72     0  00:26        2.31
  YS6348               JUNCTION     0.47     2.45    10.85     0  00:25        2.45
  YS6344               JUNCTION     0.33     2.34    10.93     0  00:32        2.26
  YS6375               JUNCTION     0.07     0.29     8.71     0  00:27        0.28
  YS6377               JUNCTION     0.13     0.35     8.71     0  00:27        0.35
  YS6381               JUNCTION     0.14     0.40     8.53     0  00:27        0.40
  YS6386               JUNCTION     0.16     0.47     8.45     0  00:27        0.47
  YS6390               JUNCTION     0.38     0.61     8.30     0  00:28        0.61
  YS6394               JUNCTION     0.09     0.24     8.16     0  00:28        0.24
  YS6404               JUNCTION     0.45     3.00    10.23     0  00:26        1.87
  YS6401               JUNCTION     0.14     0.41     7.63     0  00:30        0.40
  YS02004319           JUNCTION     0.28     1.18    20.80     0  00:21        1.18
  YS02004320           JUNCTION     0.00     0.00    22.64     0  00:37        0.00
  YS02004321           JUNCTION     0.00     0.00    26.80     0  00:34        0.00
  YS02004307           JUNCTION     0.13     0.51    11.04     0  00:30        0.51
  YS02004309           JUNCTION     0.71     1.55    13.07     0  00:12        1.55
  YS02004312           JUNCTION     0.44     1.48    14.91     0  00:17        1.48
  YS02004314           JUNCTION     0.33     1.28    16.99     0  00:21        1.28
  YS02004316           JUNCTION     0.33     1.36    19.13     0  00:21        1.36
  YS02001783           JUNCTION     0.56     1.39     7.53     0  00:24        1.24
  YS02001784           JUNCTION     0.54     1.27     7.34     0  00:24        1.13
  YS02001786           JUNCTION     0.44     1.33     7.36     0  00:24        0.87
  YS02001788           JUNCTION     0.32     0.63     6.60     0  00:24        0.62
  YS02001790           JUNCTION     0.37     0.72     6.37     0  00:32        0.71
  YS02001791           JUNCTION     0.23     0.44     5.91     0  00:29        0.43
  YS02001793           JUNCTION     0.12     0.29     5.12     0  00:43        0.28
  YS02003309           JUNCTION     0.50     1.21     9.77     0  00:15        1.04
  YS02003306           JUNCTION     0.56     1.16     9.60     0  00:15        1.16
  YS02003269           JUNCTION     0.11     0.17     7.76     0  00:22        0.17
  YS02003272           JUNCTION     0.31     1.59     9.32     0  00:15        0.58
  YS02003278           JUNCTION     0.62     1.37     9.29     0  00:15        1.21
  YS02003281           JUNCTION     0.67     1.39     9.47     0  00:15        1.39
  YS02003284           JUNCTION     0.74     1.40     9.41     0  00:15        1.40
  YS02003287           JUNCTION     0.68     1.27     9.34     0  00:14        1.27
  YS02003290           JUNCTION     0.57     1.17     9.45     0  00:14        1.17
  YS02003294           JUNCTION     0.70     1.24     9.42     0  00:14        1.24
  YS02003275           JUNCTION     0.46     1.36     9.27     0  00:15        0.91
  YS02003297           JUNCTION     0.68     1.22     9.43     0  00:17        1.22
  YS02003300           JUNCTION     0.62     1.15     9.42     0  00:15        1.15
  YS02003303           JUNCTION     0.62     1.14     9.46     0  00:15        1.14
  YSB1227              JUNCTION     0.01     0.09    10.99     0  00:26        0.08
  CaochengRainPumpOutfall1 OUTFALL      0.00     0.00     6.00     0  00:00        0.00
  JiankangRainPumpOutfall2 OUTFALL      0.00     0.00     6.00     0  00:00        0.00
  JiankangRainPumpOutfall1 OUTFALL      0.00     0.00     6.00     0  00:00        0.00
  CaochengRainPumpOutfall2 OUTFALL      0.00     0.00     6.00     0  00:00        0.00
  YS02005684           OUTFALL      0.02     0.08     8.48     0  00:27        0.08
  YS02005681           OUTFALL      0.04     0.12     9.34     0  00:27        0.12
  YS02005678           OUTFALL      0.04     0.14     8.67     0  00:27        0.14
  YS02005675           OUTFALL      0.04     0.13     8.67     0  00:27        0.13
  YS02005672           OUTFALL      0.03     0.09     8.43     0  00:27        0.09
  YS02005669           OUTFALL      0.04     0.12     8.84     0  00:27        0.12
  YS02005666           OUTFALL      0.04     0.11     8.79     0  00:27        0.11
  YS02005663           OUTFALL      0.04     0.12     8.85     0  00:27        0.12
  YS02005660           OUTFALL      0.05     0.13     8.94     0  00:27        0.13
  YS02005657           OUTFALL      0.00     0.00     8.74     0  00:00        0.00
  YS02005652           OUTFALL      0.05     0.16     8.78     0  00:27        0.16
  YS02005649           OUTFALL      0.07     0.22     8.92     0  00:27        0.22
  YS02005646           OUTFALL      0.06     0.19     8.19     0  00:27        0.19
  YS02005643           OUTFALL      0.06     0.18     8.74     0  00:27        0.18
  YS02005641           OUTFALL      0.05     0.14     8.83     0  00:27        0.14
  YS02005638           OUTFALL      0.05     0.14     8.80     0  00:27        0.14
  YS02005635           OUTFALL      0.04     0.12     8.79     0  00:27        0.12
  YS02005632           OUTFALL      0.04     0.11     8.67     0  00:27        0.11
  YS02005629           OUTFALL      0.03     0.10     8.57     0  00:26        0.10
  YS02005626           OUTFALL      0.03     0.09     8.61     0  00:26        0.09
  YS02005623           OUTFALL      0.03     0.10     8.58     0  00:26        0.10
  YS02005620           OUTFALL      0.04     0.12     8.91     0  00:27        0.12
  YS02005617           OUTFALL      0.03     0.10     8.94     0  00:26        0.10
  YSB1103              OUTFALL      0.25     0.60     8.60     0  00:26        0.60
  YSB1229              OUTFALL      0.04     0.14     8.94     0  00:26        0.14
  YS02005548           OUTFALL      0.04     0.13     9.13     0  00:26        0.13
  YS02005552           OUTFALL      0.05     0.12     8.75     0  00:27        0.12
  YS02005555           OUTFALL      0.05     0.11     8.84     0  00:28        0.11
  YS02005558           OUTFALL      0.06     0.11     8.81     0  00:28        0.11
  YS02005561           OUTFALL      0.06     0.12     8.80     0  00:28        0.12
  YS02005564           OUTFALL      0.06     0.11     8.59     0  00:28        0.11
  YS02005567           OUTFALL      0.08     0.14     8.68     0  00:28        0.14
  YS02005570           OUTFALL      0.08     0.16     8.88     0  00:28        0.16
  YS02005574           OUTFALL      0.09     0.17     9.01     0  00:28        0.17
  YS02005578           OUTFALL      0.09     0.17     8.94     0  00:28        0.17
  WS02005134           OUTFALL      0.00     0.00     8.74     0  00:00        0.00
  YS02005581           OUTFALL      0.11     0.22     9.02     0  00:28        0.22
  YS02005584           OUTFALL      0.12     0.30     9.26     0  00:25        0.30
  YS02005593           OUTFALL      0.19     0.28     9.00     0  00:36        0.28
  YS02005596           OUTFALL      0.12     0.30     8.84     0  00:22        0.30
  YS02005374           OUTFALL      0.11     0.30     8.54     0  00:23        0.30
  YS02005375           OUTFALL      0.10     0.30     8.69     0  00:23        0.30
  YS02005607           OUTFALL      0.10     0.30     7.53     0  00:24        0.30
  YS02005610           OUTFALL      0.07     0.18     8.80     0  00:27        0.18
  YS02005613           OUTFALL      0.12     0.30     8.58     0  00:25        0.30
  HS02003172           OUTFALL      0.16     0.44     5.89     0  00:28        0.44
  YS6395               OUTFALL      0.09     0.24     6.67     0  00:28        0.24
  YS6405               OUTFALL      0.14     0.40     3.85     0  00:28        0.39
  WSC                  OUTFALL      0.55     0.80     5.00     0  00:25        0.80
  JiankangQianchi      STORAGE      2.55     4.22     5.02     0  00:42        4.15
  CaochengTiaoxuchi    STORAGE      0.88     1.29     6.79     0  00:42        1.29
  XierchiQianchi       STORAGE      6.98     7.47     5.47     0  02:02        7.47
  
  
  *******************
  Node Inflow Summary
  *******************
  
  -------------------------------------------------------------------------------------------------
                                  Maximum  Maximum                  Lateral       Total        Flow
                                  Lateral    Total  Time of Max      Inflow      Inflow     Balance
                                   Inflow   Inflow   Occurrence      Volume      Volume       Error
  Node                 Type           LPS      LPS  days hr:min    10^6 ltr    10^6 ltr     Percent
  -------------------------------------------------------------------------------------------------
  WS02001211           JUNCTION      7.35   535.88     0  00:23      0.0542        1.31       2.622
  WS02001212           JUNCTION      0.00   504.42     0  00:23           0        1.33       1.125
  WS02001213           JUNCTION      0.00   539.45     0  00:22           0        1.37       1.530
  WS02003069           JUNCTION      0.32  2526.54     0  00:30     0.00236        8.94       0.281
  WS02003072           JUNCTION      0.00  2526.53     0  00:30           0        8.96       0.312
  WS02003073           JUNCTION      1.82  3096.21     0  00:30      0.0134        11.7       0.151
  WS02003076           JUNCTION      0.00  3096.52     0  00:30           0        11.6       0.197
  WS02003060           JUNCTION     16.53  2525.96     0  00:30       0.122        9.12       0.276
  WS02003066           JUNCTION      0.00  2440.53     0  00:29           0        7.74       0.044
  WS02003059           JUNCTION      0.00   600.41     0  00:22           0        1.43       2.641
  WS02003115           JUNCTION      0.00   477.09     0  00:37           0       0.903      -0.038
  WS02003116           JUNCTION      0.21   475.55     0  00:14    7.46e-06       0.926       0.039
  WS02003118           JUNCTION      0.17   438.19     0  00:14    9.33e-06       0.929       0.019
  WS02003215           JUNCTION      0.19  1899.06     0  00:28     2.7e-05        2.31      -0.080
  WS02003110           JUNCTION      0.18   376.57     0  00:27     0.00133       0.442      -0.076
  WS02003111           JUNCTION      1.56   855.00     0  00:27      0.0108        1.27      -0.051
  WS02005155           JUNCTION      0.38   376.33     0  00:27     0.00281        0.43      -0.112
  WS02005154           JUNCTION    375.90   375.90     0  00:27       0.419       0.421       0.241
  WS02005193           JUNCTION      0.38   110.89     0  00:19    0.000184      0.0199       0.428
  WS02005196           JUNCTION      0.76    91.21     0  00:19    0.000286     0.00558       0.419
  WS02003067           JUNCTION      0.00  1926.36     0  00:28           0         6.4       0.095
  WS02004401           JUNCTION      0.00  1120.41     0  00:21           0        4.94       0.361
  WS02004402           JUNCTION      0.00  1120.52     0  00:21           0        4.94       0.340
  WS02004403           JUNCTION      0.00  1120.58     0  00:21           0        4.94       0.313
  WS02004404           JUNCTION      0.16  1120.74     0  00:21      0.0012        4.94       0.245
  WS02004406           JUNCTION      0.00  1122.16     0  00:21           0        4.95       0.596
  WS02004409           JUNCTION      0.00  1862.68     0  00:26           0        6.69       0.184
  WS02004410           JUNCTION      0.00  1926.01     0  00:28           0        6.75       0.207
  WS02004411           JUNCTION      0.00  1925.77     0  00:28           0        6.45       0.231
  WS02004412           JUNCTION      0.00  1925.89     0  00:28           0        6.44       0.257
  WS02004413           JUNCTION      0.00  1926.16     0  00:28           0        6.42       0.403
  WS02004405           JUNCTION      0.16  1121.54     0  00:21    0.000481        4.94       0.360
  WS02006109           JUNCTION      1.91  1308.01     0  00:00     0.00982        5.53       0.301
  WS02006110           JUNCTION      0.27  1187.62     0  00:19    0.000141        4.95      -0.581
  WS02006111           JUNCTION      0.04  1176.04     0  00:00    3.96e-06        4.96      -0.720
  WS02006112           JUNCTION      0.48  2307.30     0  00:00    3.41e-05           5       0.128
  WS02006113           JUNCTION      0.00  1187.90     0  00:19           0        4.93      -0.768
  WS02006115           JUNCTION      0.00  1366.62     0  00:00           0        4.93       0.233
  WS02006116           JUNCTION      0.28  1120.70     0  00:21    0.000519        4.93       0.175
  WS02006230           JUNCTION     10.69  1028.74     0  00:25      0.0759        3.24       0.211
  WS02006231           JUNCTION      1.02   453.38     0  00:44     0.00183           2       0.136
  WS02006232           JUNCTION      0.91   453.42     0  00:44    0.000498        1.99       0.293
  WS02006234           JUNCTION      0.88   453.26     0  00:53    0.000756        1.99       0.033
  WS02006235           JUNCTION      1.36   437.80     0  00:17     0.00324        1.92       0.119
  WS02006238           JUNCTION      1.72   648.54     0  00:17     0.00346        1.78      -0.064
  WS02006240           JUNCTION      0.00   531.69     0  00:18           0        1.76       0.096
  WS02006242           JUNCTION      2.08   516.38     0  00:18     0.00499        1.77       0.236
  WS02006243           JUNCTION      2.40   463.76     0  00:18     0.00573        1.36       0.044
  WS02006245           JUNCTION      2.46   372.82     0  01:32     0.00449        1.36       0.293
  WS02006247           JUNCTION      0.00   395.83     0  00:18           0        1.36       0.132
  WS02006248           JUNCTION      2.74   498.65     0  00:18     0.00529        1.55       0.050
  WS02006249           JUNCTION      0.12  1377.35     0  00:27    3.71e-06        4.58       0.076
  WS02006239           JUNCTION      1.63   449.13     0  00:17     0.00327        1.77      -0.003
  WS02006251           JUNCTION      1.65  1701.16     0  00:27      0.0032        4.76       0.016
  WS02006252           JUNCTION      0.00   719.20     0  00:28           0        1.94      -0.018
  WS02006253           JUNCTION     43.63  1700.97     0  00:27      0.0476        3.46       0.056
  WS02006256           JUNCTION      0.00   300.00     0  00:22           0        1.17       0.041
  WS02004138           JUNCTION      0.00   190.00     0  00:29           0        1.18       0.249
  WS02004139           JUNCTION      0.32   565.11     0  00:24     0.00237        1.22       2.231
  WS02004407           JUNCTION      0.04  1862.86     0  00:26    7.48e-05        6.76       0.126
  WS02006228           JUNCTION      1.14  1290.60     0  00:26    0.000727         5.5       0.178
  WS02006229           JUNCTION      0.87  2309.23     0  00:25    0.000772        8.01       0.152
  WS02006280           JUNCTION      0.22  2308.84     0  00:26    0.000324        7.29      -0.005
  WS02006284           JUNCTION      0.15  2308.74     0  00:26    0.000724        7.29       0.055
  WS02006287           JUNCTION      0.17  2308.83     0  00:25     5.5e-05         7.3       0.058
  WS02003091           JUNCTION      0.44  1200.37     0  00:00    0.000908        2.73      -1.634
  WS02003203           JUNCTION      0.32  2264.56     0  00:00    0.000138        4.33      -0.312
  WS6145               JUNCTION      0.22   232.89     0  00:25    0.000463      0.0901       0.377
  WS6147               JUNCTION      0.00   233.57     0  00:25           0      0.0789       0.223
  WS6150               JUNCTION      0.09   234.20     0  00:25    0.000399       0.068       0.478
  WS6152               JUNCTION      0.58   238.32     0  00:25     0.00425      0.0571       0.749
  WS6155               JUNCTION      0.01   236.58     0  00:25    4.04e-05      0.0421       0.460
  WS6156               JUNCTION      0.66   234.57     0  00:26     0.00384       0.031       0.608
  WS6136               JUNCTION      0.20   742.65     0  00:25    4.74e-05        1.13      -0.002
  WS6140               JUNCTION      0.16   231.40     0  00:25    0.000143       0.111       0.134
  WS6142               JUNCTION      0.17   232.11     0  00:25    0.000186       0.101       0.211
  WS6325               JUNCTION      0.18   151.27     0  00:25    0.000215      0.0911       0.146
  WS6327               JUNCTION      0.12   151.21     0  00:25    0.000478      0.0802       0.136
  WS6329               JUNCTION      0.47   151.41     0  00:24     0.00193      0.0687       0.228
  WS6332               JUNCTION      0.32   151.54     0  00:24    0.000851      0.0556       0.142
  WS6158               JUNCTION      1.92   242.16     0  00:26       0.012      0.0154      -0.500
  WS6335               JUNCTION      0.65   152.06     0  00:24     0.00367      0.0434       0.369
  WS6338               JUNCTION      0.31   152.29     0  00:24     0.00116      0.0284       0.186
  WS6340               JUNCTION      0.24   153.91     0  00:25    0.000191      0.0156       0.034
  WS6342               JUNCTION      0.64   153.69     0  00:25     0.00318      0.0062      -1.891
  WS6135               JUNCTION      0.06   742.32     0  00:25    1.36e-05        1.24       0.173
  WS6396               JUNCTION      0.00   558.76     0  00:28           0        1.14       0.054
  WS6399               JUNCTION      0.00   558.74     0  00:28           0        1.14       0.018
  WS02003082           JUNCTION      0.46   590.50     0  00:26     0.00156        2.75       0.317
  WS02003077           JUNCTION      0.60   591.33     0  00:26     0.00443        2.74       0.164
  WS02003080           JUNCTION      0.00   590.63     0  00:26           0        2.74       0.088
  WS02003083           JUNCTION      0.00   590.42     0  00:26           0        2.75       0.079
  WS02003084           JUNCTION      0.04   590.37     0  00:27    0.000325        2.76       0.118
  WS02003085           JUNCTION      0.00   590.44     0  00:27           0        2.76       0.015
  WS02003086           JUNCTION      0.49   655.05     0  00:01     0.00362        2.76       0.125
  WS02003087           JUNCTION      0.00  1086.59     0  00:00           0        2.76       0.126
  WS02003088           JUNCTION      0.55  2146.84     0  00:00     0.00158        2.78       0.150
  WS02003089           JUNCTION      0.24  1590.77     0  00:00    0.000384        2.76      -0.648
  WS02003090           JUNCTION      0.39  1113.95     0  00:00     0.00051        2.73      -1.086
  WS02003081           JUNCTION      0.00   590.55     0  00:26           0        2.74       0.263
  WS02003122           JUNCTION      0.00   425.62     0  00:14           0       0.924       0.178
  WS02003187           JUNCTION    513.24   690.24     0  00:28       0.647        1.55       0.264
  WS02003188           JUNCTION      0.48   403.49     0  00:38    0.000903        1.38       0.280
  WS02003190           JUNCTION      0.53   608.63     0  00:38    0.000449        1.97       0.335
  WS02003193           JUNCTION    825.89  1088.61     0  00:28        1.03        2.14       0.323
  WS02003195           JUNCTION      0.17   351.98     0  00:14    0.000335        1.18       0.403
  WS02003196           JUNCTION      0.00   375.34     0  00:01           0        1.18       0.479
  WS02003198           JUNCTION    222.51   455.62     0  00:01       0.348        1.23       0.622
  WS02003200           JUNCTION      4.19   651.63     0  00:01       0.029       0.929      -2.142
  WS02003201           JUNCTION      0.21   642.94     0  00:01    9.63e-05        1.93      -0.817
  WS02003202           JUNCTION      0.04   709.13     0  00:00    0.000103        1.96       0.162
  WS02004041           JUNCTION      0.50  3093.49     0  00:30     0.00369        11.6       0.062
  WSA6400              JUNCTION      0.00   559.00     0  00:27           0        1.14       0.264
  WS6400               JUNCTION      0.00   558.80     0  00:27           0        1.14       0.007
  WSF208               JUNCTION      0.00   558.97     0  00:27           0        1.14       0.111
  WSF207               JUNCTION      1.60   560.61     0  00:27      0.0118        1.43       0.023
  WSF206               JUNCTION      0.00   488.55     0  00:27           0        1.36       0.064
  WSF205               JUNCTION      0.00   488.61     0  00:27           0        1.36       0.267
  WSF204               JUNCTION      0.00   488.64     0  00:27           0        1.35       0.705
  WSF203               JUNCTION      0.00   488.58     0  00:27           0        1.34       0.267
  WSF202               JUNCTION      1.27   489.86     0  00:27     0.00937        1.35       0.150
  WSF201               JUNCTION      0.00   489.89     0  00:27           0        1.35       0.098
  WSF200               JUNCTION      0.00  2379.67     0  00:28           0        7.73       0.035
  HS02004901           JUNCTION      0.20   265.79     0  00:43    0.000164       0.407       0.580
  HS02004881           JUNCTION    162.44  1658.84     0  00:27       0.193         3.4      -0.004
  HS02004876           JUNCTION    284.41  1506.79     0  00:29       0.377        3.21       0.092
  HS02004870           JUNCTION    294.74  1614.53     0  00:24       0.365        2.83       0.017
  HS02004862           JUNCTION    279.59  1412.20     0  00:24       0.481        2.48       0.048
  HS02004856           JUNCTION    220.19  1295.03     0  00:23       0.275           2       0.106
  HS02004852           JUNCTION      0.00  1161.67     0  00:23           0        1.73       0.042
  HS02004848           JUNCTION    595.17  1182.70     0  00:23        1.13        1.84       0.046
  HS02004842           JUNCTION      0.10   940.96     0  00:23    5.14e-06       0.835       1.691
  HS02004837           JUNCTION    494.38   955.08     0  00:22       0.677        1.18       0.104
  HS02004830           JUNCTION      0.15   733.45     0  00:22     0.00111       0.858       0.235
  HS02004824           JUNCTION    658.16  1228.55     0  00:29        1.15        1.69       0.072
  HS02004817           JUNCTION      0.60  1196.70     0  00:30     0.00443        1.39       1.379
  HS02004807           JUNCTION    544.63  1729.86     0  00:28       0.665        1.98       0.317
  HS02004802           JUNCTION      0.03  1232.83     0  00:32    2.45e-06        1.75       0.325
  HS02004799           JUNCTION    433.02  1575.11     0  00:28       0.543        4.58       0.152
  HS02004792           JUNCTION   2133.23  2981.34     0  00:28        3.27        5.46       0.031
  HS02004788           JUNCTION    650.10   850.90     0  00:27        0.94         2.2       0.034
  HS02004785           JUNCTION      0.15   570.15     0  00:22     0.00111        1.26       0.180
  HS02004777           JUNCTION      0.28   571.21     0  00:22    0.000802        1.27       0.583
  HS02004770           JUNCTION   1784.17  1784.17     0  00:28        2.53        2.54       0.185
  HS02004480           JUNCTION      0.27  2227.33     0  00:22     0.00044        5.76       0.062
  HS02004479           JUNCTION      0.38   705.78     0  00:22    0.000741        1.47       0.106
  HS02004478           JUNCTION      0.15  2309.16     0  00:25    5.76e-05        7.33      -0.003
  HS02004053           JUNCTION      0.03  1040.78     0  00:25    4.08e-06         1.9      -0.039
  HS02004052           JUNCTION      0.24  1040.81     0  00:25     7.1e-05         1.9       0.022
  HS02004049           JUNCTION      0.45  1517.83     0  00:26      0.0019        2.29       0.007
  HS02004048           JUNCTION   1169.50  2261.66     0  00:27        1.29        2.51       0.009
  HS02004046           JUNCTION      0.80  1098.95     0  00:27      0.0059        1.22       0.103
  HS02004043           JUNCTION      1.50  1098.26     0  00:27      0.0111        1.21      -0.003
  HS02004041           JUNCTION      0.11  1096.12     0  00:27    0.000564         1.2       0.008
  HS02004038           JUNCTION   1097.50  1097.50     0  00:27         1.2         1.2       0.003
  HS02004036           JUNCTION      0.00     0.00     0  00:00           0           0       0.000 ltr
  HS02004034           JUNCTION      0.00     0.00     0  00:00           0           0       0.000 ltr
  HS02004028           JUNCTION    968.54   968.54     0  00:27        1.04        1.04      -0.002
  HS02004027           JUNCTION      0.10   616.64     0  00:24     1.3e-05       0.942       0.002
  HS02004026           JUNCTION      0.00   618.38     0  00:24           0       0.942       0.001
  HS02004024           JUNCTION      0.00   620.39     0  00:24           0       0.942       0.002
  HS02004022           JUNCTION    365.56   965.72     0  00:27       0.411        1.35      -0.001
  HS02004021           JUNCTION      0.37   801.15     0  00:29     0.00168         1.3      -0.001
  HS02004019           JUNCTION      0.12  1521.20     0  00:24    3.49e-06        2.83       0.001
  HS02004018           JUNCTION    211.49   994.65     0  00:26         0.2        1.67      -0.002
  HS02004017           JUNCTION      0.12  1325.74     0  00:27    3.48e-06        1.65       0.003
  HS02004013           JUNCTION    871.39  1327.39     0  00:27        1.16        1.65       0.003
  HS02004010           JUNCTION    456.49   456.49     0  00:27       0.486       0.486       0.002
  HS02003174           JUNCTION      0.00  2374.82     0  00:28           0        3.86       0.042
  HS02003171           JUNCTION    257.48  2266.97     0  00:28       0.342        3.48       0.083
  HS02003170           JUNCTION      0.00  2011.77     0  00:28           0        3.14       0.066
  HS02003168           JUNCTION      0.00  2013.51     0  00:28           0        3.14       0.039
  HS02003166           JUNCTION    625.25  2010.52     0  00:28       0.912        3.15       0.028
  HS02003162           JUNCTION      0.15  1062.66     0  00:26    4.92e-05        2.46       0.004
  HS02003160           JUNCTION    595.60  1659.37     0  00:26       0.613        3.07       0.003
  HS02003150           JUNCTION      0.16  1658.04     0  00:26     0.00024        3.07       0.002
  HS02003148           JUNCTION    657.71  2313.12     0  00:26        0.67        3.74       0.005
  HS02003145           JUNCTION    942.32  3246.49     0  00:27        1.04        4.78       0.000
  HS02003143           JUNCTION      0.30  2648.68     0  00:25     0.00133        4.61       0.024
  HS02003138           JUNCTION      0.30     0.30     0  00:38    0.000507    0.000507       0.000
  HS02003136           JUNCTION    374.51  2392.37     0  00:27       0.439        4.64      -0.445
  HS02003125           JUNCTION      0.52  1899.05     0  00:28     0.00303        2.19       0.055
  HS02003122           JUNCTION    339.88  1898.43     0  00:28       0.436        2.17       0.027
  HS02003119           JUNCTION   1024.07  1563.24     0  00:28        1.09        1.74       0.001
  HS02003116           JUNCTION      0.27   806.26     0  00:19    0.000415       0.621      -0.053
  HS02003111           JUNCTION      0.00   592.03     0  00:29           0       0.588       0.616
  HS02003108           JUNCTION      0.00   591.65     0  00:28           0        0.59       1.019
  HS02003100           JUNCTION      0.00   590.22     0  00:28           0       0.589       0.486
  HS02003088           JUNCTION    555.06   583.30     0  00:28       0.578       0.619       0.230
  HS02003084           JUNCTION      0.03   332.32     0  00:20    0.000236      0.0607       0.072
  HS02003079           JUNCTION      0.15   255.40     0  00:21     0.00108      0.0322       0.271
  HS02003077           JUNCTION      0.00    61.35     0  00:25           0     0.00678       0.012
  HS02003065           JUNCTION      0.25  1211.03     0  00:19    0.000144        3.18      -0.008
  HS02003056           JUNCTION      0.00  2017.92     0  00:27           0        4.19       0.012
  HS02003053           JUNCTION    368.65  1001.82     0  00:27       0.437        1.03       0.016
  HS02003042           JUNCTION      0.00   633.46     0  00:26           0       0.582      -0.051
  HS02003039           JUNCTION      0.00   633.36     0  00:26           0       0.563       0.020
  HS02003036           JUNCTION    968.80   968.80     0  00:27        1.14        1.14       0.041
[...]
  WS02003195WS02003196        1.28      1.28      1.31      1.24         0.82
  WS02003193WS02003195        1.28      1.28      1.32      0.30         0.23
  WS02003188WS02003190        1.31      1.31      1.35      0.53         0.55
  WS02003187WS02003188        1.30      1.30      1.32      0.89         0.88
  WS02003202WS02003203        1.31      1.31      1.32      1.00         0.23
  WS02003190WS02003193        1.28      1.28      1.34      0.01         0.01
  WS02005155WS02003110        1.14      1.14      1.15      0.15         0.17
  WS02003203WS02003091        1.32      1.32      1.33      1.07         1.05
  WS02003091WS02003090        1.35      1.35      1.43      0.01         0.01
  WS02003090WS02003089        1.39      1.39      1.42      1.46         0.01
  WS02003089WS02003088        1.39      1.40      1.42      1.24         1.21
  WS02003088WS02003087        1.44      1.45      1.44      1.50         1.44
  WS02003087WS02003086        1.36      1.36      1.46      1.39         0.01
  WS02003086WS02003085        1.34      1.34      1.42      1.49         0.01
  WS02003085WS02003084        1.37      1.38      1.39      1.33         1.30
  WS02003084WS02003083        1.37      1.40      1.37      1.74         1.37
  WS02003083WS02003082        1.33      1.33      1.43      1.53         0.01
  WS02003082WS02003081        1.29      1.32      1.29      1.54         1.29
  WS02003081WS02003080        1.28      1.30      1.28      1.33         1.28
  WS02003080WS02003077        0.49      0.49      1.30      1.36         0.01
  WS02003073WS02003076        0.57      0.57      0.88      0.17         0.01
  HS02004901HS02004770        0.65      0.65      0.65      0.01         0.01
  HS02004876HS02004881        0.65      0.66      0.65      1.05         0.65
  HS02004870HS02004876        0.59      0.59      0.66      0.01         0.01
  HS02004049HS02004052        0.13      0.13      0.16      0.01         0.01
  HS02004048HS02004049        0.24      0.34      0.24      0.40         0.24
  HS02004046HS02004048        0.15      0.15      0.34      0.01         0.01
  HS02004043HS02004046        0.12      0.12      0.18      0.01         0.01
  HS02004041HS02004043        0.01      0.01      0.11      0.01         0.01
  HS02004028HS02004027        0.01      0.13      0.01      0.14         0.01
  HS02003143HS02003065        0.49      0.49      0.70      0.01         0.01
  HS02004842HS02004848        0.51      0.51      0.69      0.01         0.01
  HS02004837HS02004842        0.54      0.54      0.69      0.01         0.01
  HS02004830HS02004837        0.54      0.54      0.60      0.01         0.01
  HS02004824HS02004830        0.60      0.60      0.64      0.01         0.01
  HS02004817HS02004824        0.64      0.64      0.97      0.01         0.01
  HS02004770HS02004777        0.65      0.65      0.66      0.01         0.01
  HS02004799HS02004480        0.76      0.76      0.79      0.80         0.01
  HS02004792HS02004799        0.72      0.72      0.79      0.01         0.01
  HS02004788HS02004792        0.60      0.60      0.72      0.01         0.01
  HS02004785HS02004788        0.60      0.61      0.60      0.96         0.52
  HS02004777HS02004785        0.61      0.61      0.66      0.01         0.01
  HS02004480HS02004478        0.71      0.76      0.71      1.23         0.71
  HS02004479HS02004480        0.76      0.76      0.77      0.01         0.01
  HS02003013HS02003010        0.33      0.33      0.37      0.21         0.21
  HS02003010HS02003007        0.32      0.32      0.33      0.37         0.32
  HS02003007HS02003004        0.33      0.33      0.38      0.18         0.18
  HS02003004HS02003001        0.01      0.38      0.01      0.81         0.01
  HS02003065HS02003056        0.68      0.68      0.77      0.01         0.01
  HS02003042HS02003053        0.28      0.28      0.64      0.01         0.01
  HS02003028HS02003021        0.21      0.21      0.28      0.01         0.01
  HS02003021HS02003018        0.30      0.30      0.32      0.09         0.09
  HS02003018HS02003017        0.32      0.32      0.33      0.08         0.07
  HS02003017HS02003013        0.33      0.33      0.33      0.26         0.24
  HS02004862HS02004870        0.56      0.57      0.59      0.22         0.20
  HS02004848HS02004852        0.51      0.51      0.54      0.02         0.01
  HS02004856HS02004862        0.52      0.52      0.57      0.01         0.01
  HS02004852HS02004856        0.54      0.54      0.57      0.02         0.01
  HS02004024HS02004022        0.01      0.01      0.17      0.01         0.01
  HS02004022HS02004021        0.17      0.17      0.26      0.01         0.01
  HS02004021HS02004019        0.26      0.26      0.34      0.19         0.19
  HS02004019HS02003162        0.01      0.34      0.01      0.37         0.01
  HS02004052HS02004053        0.15      0.16      0.15      0.18         0.15
  HS02003122HS02003125        0.93      0.93      0.94      0.14         0.18
  HS02003119HS02003122        0.86      0.86      0.94      0.01         0.01
  HS02003116HS02003119        0.73      0.73      0.85      0.01         0.01
  HS02003111HS02003116        0.01      0.01      0.75      0.01         0.01
  HS02004018HS02004019        0.19      0.19      0.34      0.01         0.01
  HS02003056HS02003136        0.71      0.71      0.84      0.01         0.01
  HS02004017HS02004018        0.17      0.17      0.19      0.01         0.01
  HS02004013HS02004017        0.01      0.01      0.17      0.01         0.01
  HS02004802HS02004478        0.72      0.72      0.76      0.15         0.01
  HS02004478WS02006287        0.62      0.62      0.74      0.01         0.01
  HS02003148HS02003145        0.01      0.01      0.13      0.01         0.01
  HS02003145HS02003143        0.13      0.13      0.42      0.12         0.10
  HS02003136WS02003203        0.92      0.92      1.05      0.01         0.01
  HS02003084HS02003088        0.01      0.01      0.03      0.01         0.01
  HS02003108HS02003111        0.15      0.15      0.37      0.01         0.01
  HS02003100HS02003108        0.07      0.07      0.15      0.01         0.01
  HS02003088HS02003100        0.05      0.05      0.07      0.01         0.01
  HS02004817HS02004807        0.74      0.74      0.97      0.01         0.01
  HS02004807HS02004802        0.74      0.74      0.75      0.29         0.29
  HS02003053HS02003056        0.64      0.64      0.77      0.01         0.01
  HS02003039HS02003042        0.34      0.34      0.37      0.21         0.02
  HS02003036HS02003039        0.16      0.16      0.21      0.01         0.01
  YS02001759YS02001757        0.07      0.08      0.07      0.15         0.07
  YS02001762YS02001759        0.08      0.09      0.08      0.15         0.08
  YS02001765YS02001762        0.08      0.08      0.09      0.05         0.04
  YS02001770YS02001767        0.09      0.11      0.09      0.58         0.09
  YS02001774YS02001770        0.10      0.10      0.13      0.01         0.01
  YS02001779YS02001774        0.06      0.06      0.13      0.01         0.01
  YS02001767YS02001765        0.08      0.09      0.08      0.17         0.08
  YS02006561YS02001783        0.38      0.38      0.58      0.01         0.01
  YS02001783YS02001784        0.55      0.58      0.55      0.69         0.55
  YS02001784YS02001785        0.45      0.55      0.45      0.81         0.45
  YS02001790YS02001791        0.01      0.01      0.01      0.54         0.01
  YS02001910YS02001907        0.61      0.61      0.73      0.01         0.01
  YS02001786YS02001788        0.01      0.45      0.01      0.75         0.01
  YS02001915YS02001910        0.52      0.52      0.61      0.01         0.01
  YS02001918YS02001915        0.43      0.43      0.52      0.01         0.01
  YS02001923YS02001920        0.37      0.37      0.45      0.01         0.01
  YS02001926YS02001923        0.12      0.13      0.15      0.01         0.01
  YS02001929YS02001926        0.02      0.02      0.15      0.01         0.01
  YS02001932YS02001929        0.01      0.01      0.02      0.01         0.01
  YS02001935YS02001932        0.01      0.01      0.01      0.01         0.01
  YS02001920YS02001918        0.43      0.43      0.45      0.01         0.01
  YS02003290YS02003287        0.87      0.87      0.97      0.01         0.01
  YS02003294YS02003290        0.88      0.88      1.00      0.01         0.01
  YS02003297YS02003294        0.99      0.99      0.99      0.14         0.14
  YS02003275YS02003272        0.80      0.84      0.80      0.94         0.80
  YS02003300YS02003297        0.91      0.91      0.97      0.01         0.01
  YS02003303YS02003300        0.87      0.87      0.94      0.01         0.01
  YS02005582YS02005583        0.18      0.43      0.18      0.64         0.18
  YS02003272YS02003269        0.01      0.83      0.01      0.94         0.01
  YS02003278YS02003275        0.86      0.99      0.86      1.19         0.86
  YS02003281YS02003278        0.92      0.92      0.97      0.86         0.86
  YS02003284YS02003281        0.92      0.92      0.98      0.50         0.30
  YS02003287YS02003284        0.96      0.96      1.00      0.01         0.01
  YS02003306YS02003303        0.85      0.85      0.91      0.40         0.41
  YS02003309YS02003306        0.82      0.82      0.85      0.01         0.01
  YS02005600YS02005375        0.17      0.17      0.18      0.18         0.17
  YS02005384YS02005593        0.01      0.86      0.01      0.89         0.01
  YS02005595YS02005596        0.26      0.27      0.26      0.29         0.26
  YS02005612YS02005613        0.07      0.07      0.79      0.26         0.01
  YS02005571YS02005572        0.01      0.01      0.01      0.03         0.01
  YS02005579YS02005580        0.01      0.26      0.01      0.46         0.01
  YS02005583YS02005584        0.18      0.18      0.20      0.20         0.18
  YS02006553YS02006556        0.68      0.68      0.74      0.01         0.01
  YS02006556YS02006558        0.71      0.71      0.75      0.01         0.01
  YSB6556YSB1171              0.81      0.81      1.03      0.01         0.01
  YSB1202YSB1205              0.93      0.93      1.00      0.01         0.01
  YSB1205YSB1209              1.00      1.00      1.01      0.79         0.73
  YSB1209YSB1212              0.96      1.01      0.96      1.29         0.96
  YSB1212YSB1215              0.96      0.96      0.99      0.50         0.49
  YSB1215YSB1218              0.99      0.99      1.01      0.60         0.59
  YSB1218YSB1221              0.94      0.94      1.04      0.81         0.81
  YSB1221YSB1224              1.04      1.04      1.07      0.93         0.93
  YSB1224YSB1105              0.68      1.18      0.68      1.45         0.68
  YSB1189YSB1186              0.53      0.53      0.64      0.11         0.11
  YS02001907YS02006553        0.81      0.81      0.83      0.01         0.01
  YS02006562YS02006558        0.58      0.58      0.75      0.01         0.01
  YS02006558YS02006561        0.47      0.67      0.47      0.78         0.47
  YS6184YS6187                0.11      0.11      0.13      0.03         0.04
  YS6360YS6363                0.09      0.13      0.09      0.63         0.09
  YS6354YS6360                0.19      0.19      0.20      0.19         0.17
  YS6351YS6354                0.19      0.21      0.19      0.38         0.19
  YS6350YS6351                0.21      0.23      0.21      0.65         0.21
  YS6348YS6350                0.22      0.22      0.23      0.20         0.19
  YS6344YS6348                0.22      0.22      0.28      0.01         0.01
  YS6363YS6132                0.09      0.09      0.24      0.01         0.01
  YS6137YS6132                0.17      0.17      0.33      0.01         0.01
  YS6189YS6137                0.17      0.17      0.18      0.89         0.01
  YS6187YS6189                0.11      0.11      0.13      0.25         0.01
  YS6179YS6184                0.10      0.10      0.11      0.01         0.01
  YS6176YS6179                0.02      0.02      0.10      0.01         0.01
  YS6171YS6176                0.06      0.06      0.10      0.01         0.01
  YS6168YS6171                0.05      0.05      0.06      0.01         0.01
  YS6164YS6168                0.01      0.01      0.05      0.01         0.01
  YS6162YS6164                0.04      0.04      0.07      0.01         0.01
  YS6132YS6404                0.01      0.12      0.01      0.26         0.01
  YSB1106YSB1105              0.01      0.11      0.01      0.16         0.01
  YSB1109YSB1106              0.11      0.18      0.11      0.31         0.11
  YSB1112YSB1109              0.18      0.18      0.18      0.21         0.17
  YSB1115YSB1112              0.16      0.16      0.18      0.11         0.11
  YSB1118YSB1115              0.19      0.19      0.19      0.21         0.19
  YSB1121YSB1118              0.19      0.22      0.19      0.31         0.19
  YSB1124YSB1121              0.19      0.19      0.22      0.01         0.01
  YSB1105YSB1103              0.01      0.01      0.09      0.09         0.01
  YS02001754YS02001757        0.01      0.01      0.07      0.01         0.01
  YS02001882YS02001884        0.52      0.52      0.53      0.01         0.01
  YS02001884YS02001887        0.55      0.55      0.56      0.01         0.01
  YS02001890YS02001895        0.51      0.51      0.61      0.01         0.01
  YS02001895YS02001898        0.51      0.51      0.51      0.01         0.01
  YS02001898YS02001901        0.51      0.51      0.55      0.01         0.01
  YS02001901YS02001904        0.54      0.54      0.55      0.01         0.01
  YS02001904YS02001907        0.54      0.54      0.74      0.01         0.01
  YS02001887YS02001890        0.58      0.58      0.59      0.14         0.01
  YS02004309YS02004307        0.12      0.81      0.12      0.80         0.12
  YS02004319YS02004316        0.31      0.31      0.33      0.01         0.01
  YS02005376YS02005378        0.97      0.97      1.43      0.01         0.01
  YS02005378YS02005381        1.15      1.15      1.43      0.17         0.01
  YS02005381YS02005384        0.86      0.86      1.15      1.27         0.01
  YS02005598YS02005374        0.18      0.18      0.20      0.20         0.18
  YS02005602YS02005603        0.15      0.40      0.15      0.48         0.15
  YS02005603YS02005607        0.15      0.15      0.16      0.16         0.15
  YS02005624YS02005625        0.01      0.01      0.18      0.01         0.01
  YS02005630YS02005631        0.01      0.01      0.01      0.03         0.01
  YS02005636YS02005637        0.01      0.01      0.01      0.05         0.01
  YS02005627YS02005628        0.01      0.01      0.01      0.19         0.01
  YS02005644YS02005645        0.01      0.10      0.01      0.12         0.01
  YS02005650YS02005651        0.01      0.08      0.01      0.16         0.01
  YS02005653YS02005654        0.05      0.05      0.06      0.05         0.05
  YS02005654YS02005655        0.01      0.06      0.01      0.15         0.01
  YS02005658YS02005659        0.01      0.01      0.01      0.01         0.01
  YS02005661YS02005662        0.01      0.06      0.01      0.17         0.01
  YS02005664YS02005665        0.01      0.07      0.01      0.38         0.01
  YS02005667YS02005668        0.01      0.01      0.42      0.10         0.01
  YS02005647YS02005648        0.01      0.22      0.01      0.35         0.01
  YS02004312YS02004309        0.44      0.44      0.81      0.01         0.01
  YS02004314YS02004312        0.35      0.35      0.44      0.01         0.01
  YS02004316YS02004314        0.33      0.33      0.35      0.27         0.27
  YS02004320YS02004319        0.01      0.01      0.23      0.01         0.01
  YS6404YS6401                0.01      0.01      0.01      0.61         0.01
  YSB1132YSB1135              0.53      0.53      0.59      0.01         0.01
  YSB1135YSB1138              0.59      0.59      0.62      0.01         0.01
  YSB1138YSB1141              0.62      0.62      0.70      0.34         0.34
  YSB1141YSB1145              0.68      0.68      0.70      0.33         0.32
  YSB1148YSB1151              0.74      0.74      0.83      0.01         0.01
  YSB1151YSB1154              0.80      0.80      0.87      0.01         0.01
  YSB1154YSB6556              0.81      0.81      0.87      0.35         0.01
  YSB1128YSB1132              0.50      0.50      0.53      0.01         0.01
  YSB1145YSB1148              0.70      0.70      0.74      0.01         0.01
  YSB1198YSB1195              0.21      0.21      0.47      0.01         0.01
  YSB1195YSB1192              0.47      0.47      0.50      0.01         0.01
  YSB1192YSB1189              0.50      0.50      0.53      0.01         0.01
  YSB1186YSB1183              0.59      0.59      0.69      0.01         0.01
  YSB1183YSB1180              0.69      0.69      0.72      0.14         0.15
  YSB1180YSB1177              0.72      0.72      0.84      0.01         0.01
  YSB1177YSB1174              0.84      0.84      0.90      0.15         0.16
  YSB1174YSB1171              0.83      0.83      0.96      0.12         0.12
  YSB1171HS02004479           0.74      0.74      0.86      0.01         0.01
  YS02004307HS02004052        0.01      0.01      0.16      0.01         0.01
  HS02004881HS02006253        0.65      0.65      1.21      0.01         0.01
  WS0200404049WS6136          0.14      0.14      0.23      0.01         0.01
  HS02003125WS02003215        0.94      0.94      1.01      0.01         0.01
  YS02001793JiankangQianchi        0.01      0.01      2.04      0.01         0.01
  YS02001757CaochengTiaoxuchi        0.06      0.07      0.66      0.06         0.04
  WS02004041WS6409            0.73      0.73      0.78      0.78         0.73
  WSF200WS02003060            0.17      0.17      0.41      0.01         0.01
  HS02004053WS02004407        0.15      0.15      0.78      0.01         0.01
  HS02003036HS02003028        0.16      0.16      0.26      0.01         0.01
  
  
  ***************
  Pumping Summary
  ***************
  
  ---------------------------------------------------------------------------------------------------------
                                                  Min       Avg       Max     Total     Power    % Time Off
                        Percent   Number of      Flow      Flow      Flow    Volume     Usage    Pump Curve
  Pump                 Utilized   Start-Ups       LPS       LPS       LPS  10^6 ltr     Kw-hr    Low   High
  ---------------------------------------------------------------------------------------------------------
  CaochengSewagePump1     68.25           1      0.00    200.00    200.00     1.007      7.79    0.0    0.0
  CaochengSewagePump2     51.63           1      0.00    200.00    200.00     0.762      6.03    0.0    0.0
  CaochengRainPump1       47.65           1      0.00    683.00    683.00     2.401      3.38    0.0   40.8
  CaochengRainPump2        0.00           0      0.00      0.00      0.00     0.000      0.00    0.0    0.0
  JiankangSewagePump      52.63           1      0.00    300.00    300.00     1.165     19.27    0.0    0.0
  JiankangRainPump1       28.50           3      0.00   1000.00   1000.00     2.103     14.53    0.0    0.0
  JiankangRainPump2        0.00           0      0.00      0.00      0.00     0.000      0.00    0.0    0.0
  XierchiSewagePump1      91.86           1      0.00     95.00     95.00     0.644      3.97    0.0    0.0
  XierchiSewagePump2      76.38           1      0.00     95.00     95.00     0.535      3.13    0.0    0.0
  XierchiSewagePump3       0.00           0      0.00      0.00      0.00     0.000      0.00    0.0    0.0
  XierchiSewagePump4       0.00           0      0.00      0.00      0.00     0.000      0.00    0.0    0.0
  

  Analysis begun on:  Mon Aug  1 09:48:20 2022
  Analysis ended on:  Mon Aug  1 10:17:44 2022
  Total elapsed time: 00:29:24