
  EPA STORM WATER MANAGEMENT MODEL - VERSION 5.1 (Build 5.3.0.dev0)
  --------------------------------------------------------------

  WARNING 04: minimum elevation drop used for Conduit WS02004404WS02004405
  WARNING 03: negative offset ignored for Link YS02001904YS02001907
  
  *********************************************************
  NOTE: The summary statistics displayed in this report are
  based on results found at every computational time step,  
  not just on results from each reporting time step.
  *********************************************************
  
  ****************
  Analysis Options
  ****************
  Flow Units ............... LPS
  Process Models:
    Rainfall/Runoff ........ YES
    RDII ................... NO
    Snowmelt ............... NO
    Groundwater ............ NO
    Flow Routing ........... YES
    Ponding Allowed ........ NO
    Water Quality .......... NO
  Infiltration Method ...... HORTON
  Flow Routing Method ...... DYNWAVE
  Surcharge Method ......... EXTRAN
  Starting Date ............ 03/31/2017 00:00:00
  Ending Date .............. 03/31/2017 03:00:00
  Antecedent Dry Days ...... 8.0
  Report Time Step ......... 00:02:00
  Wet Time Step ............ 00:01:00
  Dry Time Step ............ 00:01:00
  Routing Time Step ........ 30.00 sec
  Variable Time Step ....... YES
  Maximum Trials ........... 8
  Number of Threads ........ 6
  Head Tolerance ........... 0.001500 m
  
  
  **************************        Volume         Depth
  Runoff Quantity Continuity     hectare-m            mm
  **************************     ---------       -------
  Total Precipitation ......        10.362        87.934
  Evaporation Loss .........         0.000         0.000
  Infiltration Loss ........         0.322         2.733
  Surface Runoff ...........         9.715        82.446
  Final Storage ............         0.331         2.805
  Continuity Error (%) .....        -0.057
  
  
  **************************        Volume        Volume
  Flow Routing Continuity        hectare-m      10^6 ltr
  **************************     ---------     ---------
  Dry Weather Inflow .......         0.171         1.710
  Wet Weather Inflow .......         9.714        97.138
  Groundwater Inflow .......         0.000         0.000
  RDII Inflow ..............         0.000         0.000
  External Inflow ..........         0.036         0.359
  External Outflow .........         4.842        48.420
  Flooding Loss ............         5.051        50.506
  Evaporation Loss .........         0.000         0.000
  Exfiltration Loss ........         0.000         0.000
  Initial Stored Volume ....         0.303         3.031
  Final Stored Volume ......         0.365         3.653
  Continuity Error (%) .....        -0.334
  
  
  *************************
  Highest Continuity Errors
  *************************
  Node YS02001884 (8.36%)
  Node YS02004320 (4.46%)
  Node YS6162 (4.05%)
  Node WS02003059 (2.58%)
  Node WS02001211 (2.55%)
  
  
  ***************************
  Time-Step Critical Elements
  ***************************
  Link YS02005655YS02005657 (41.77%)
  Link WS02004041WS6409 (28.17%)
  Link WS02006252WS02006251 (11.57%)
  Link WS02006238WS02006235 (2.15%)
  Link WSF207WS02004410 (1.18%)
  
  
  ********************************
  Highest Flow Instability Indexes
  ********************************
  Link WS02003201WS02003202 (72)
  Link WS02003215WS02003116 (63)
  Link WS02003115WS02003215 (60)
  Link WS02006238WS02006235 (60)
  Link WS02003200WS02003201 (59)
  
  
  *************************
  Routing Time Step Summary
  *************************
  Minimum Time Step           :     0.50 sec
  Average Time Step           :     1.01 sec
  Maximum Time Step           :    30.00 sec
  Percent in Steady State     :    -0.00
  Average Iterations per Step :     6.10
  Percent Not Converging      :    43.59
  
  
  ***************************
  Subcatchment Runoff Summary
  ***************************
  
  ------------------------------------------------------------------------------------------------------------------------------
                            Total      Total      Total      Total     Imperv       Perv      Total       Total     Peak  Runoff
                           Precip      Runon       Evap      Infil     Runoff     Runoff     Runoff      Runoff   Runoff   Coeff
  Subcatchment                 mm         mm         mm         mm         mm         mm         mm    10^6 ltr      LPS
  ------------------------------------------------------------------------------------------------------------------------------
  sub0                      87.93       0.00       0.00       0.74      80.48       5.37      85.85        0.07    65.81   0.976
  sub1                      87.93       0.00       0.00       1.17      76.60       8.26      84.86        0.56   446.06   0.965
  sub2                      87.93       0.00       0.00       3.93      54.07      25.24      79.30        0.74   454.86   0.902
  sub3                      87.93       0.00       0.00       3.93      53.77      23.98      77.74        1.75   981.90   0.884
  sub4                      87.93       0.00       0.00       1.17      75.38       8.02      83.41        1.74  1076.06   0.948
  sub5                      87.93       0.00       0.00       0.74      80.04       5.30      85.35        0.97   767.60   0.971
  sub6                      87.93       0.00       0.00       0.74      79.76       5.27      85.04        2.20  1634.91   0.967
  sub7                      87.93       0.00       0.00       0.96      78.58       6.84      85.42        0.29   251.84   0.971
  sub8                      87.93       0.00       0.00       0.96      78.50       6.82      85.32        0.55   460.13   0.970
  sub9                      87.93       0.00       0.00       0.96      78.48       6.82      85.30        0.41   343.45   0.970
  sub10                     87.93       0.00       0.00       0.85      79.24       6.06      85.30        0.94   758.66   0.970
  sub11                     87.93       0.00       0.00       0.85      79.39       6.08      85.47        0.99   849.09   0.972
  sub12                     87.93       0.00       0.00       1.38      75.23       9.88      85.11        0.74   683.02   0.968
  sub13                     87.93       0.00       0.00       3.61      56.94      24.63      81.57        0.97   714.42   0.928
  sub14                     87.93       0.00       0.00       0.96      78.46       6.81      85.28        0.81   674.97   0.970
  sub15                     87.93       0.00       0.00       3.19      60.33      21.75      82.08        1.41  1039.13   0.933
  sub16                     87.93       0.00       0.00       3.50      57.91      24.34      82.25        0.86   700.16   0.935
  sub17                     87.93       0.00       0.00       3.40      58.76      23.57      82.32        0.71   568.14   0.936
  sub18                     87.93       0.00       0.00       0.96      78.63       6.86      85.49        0.68   609.42   0.972
  sub19                     87.93       0.00       0.00       3.29      59.60      22.80      82.40        0.26   208.51   0.937
  sub20                     87.93       0.00       0.00       0.96      78.57       6.84      85.41        0.60   519.81   0.971
  sub21                     87.93       0.00       0.00       1.27      76.06       9.11      85.17        0.43   389.99   0.969
  sub22                     87.93       0.00       0.00       4.57      49.20      30.57      79.77        5.04  3447.90   0.907
  sub23                     87.93       0.00       0.00       3.93      54.39      26.80      81.20        3.87  2851.91   0.923
  sub24                     87.93       0.00       0.00       1.49      74.31      10.59      84.90        3.04  2706.04   0.966
  sub25                     87.93       0.00       0.00       0.74      80.50       5.38      85.88        1.11  1078.37   0.977
  sub26                     87.93       0.00       0.00       2.55      65.81      18.24      84.05        1.20  1168.29   0.956
  sub27                     87.93       0.00       0.00       0.96      78.43       6.81      85.24        1.23  1013.30   0.969
  sub28                     87.93       0.00       0.00       0.85      79.28       6.06      85.34        1.34  1093.45   0.971
  sub29                     87.93       0.00       0.00       0.85      78.83       6.00      84.83        1.37   996.97   0.965
  sub30                     87.93       0.00       0.00       0.85      79.56       6.12      85.68        1.93  1781.83   0.974
  sub31                     87.93       0.00       0.00       1.81      71.81      12.90      84.71        1.80  1676.05   0.963
  sub32                     87.93       0.00       0.00       0.85      79.46       6.09      85.55        1.70  1498.42   0.973
  sub33                     87.93       0.00       0.00       1.38      75.24       9.89      85.13        1.56  1440.26   0.968
  sub34                     87.93       0.00       0.00       5.31      43.28      36.81      80.09        1.79  1408.61   0.911
  sub35                     87.93       0.00       0.00       0.85      79.71       6.17      85.88        0.30   318.96   0.977
  sub36                     87.93       0.00       0.00       2.34      67.52      16.69      84.22        0.73   694.56   0.958
  sub37                     87.93       0.00       0.00       4.14      52.82      29.30      82.13        0.63   568.65   0.934
  sub38                     87.93       0.00       0.00       3.72      56.30      26.47      82.77        1.57  1506.36   0.941
  sub39                     87.93       0.00       0.00       0.85      79.66       6.15      85.81        0.91   910.48   0.976
  sub40                     87.93       0.00       0.00       0.85      79.66       6.15      85.82        1.00  1004.04   0.976
  sub41                     87.93       0.00       0.00       1.70      72.70      12.18      84.89        1.63  1551.10   0.965
  sub42                     87.93       0.00       0.00       0.96      78.79       6.91      85.70        0.86   850.23   0.975
  sub43                     87.93       0.00       0.00       4.04      53.63      28.04      81.67        0.66   543.17   0.929
  sub44                     87.93       0.00       0.00       0.74      80.17       5.32      85.49        0.97   799.00   0.972
  sub45                     87.93       0.00       0.00       1.81      71.63      12.73      84.37        1.55  1297.39   0.959
  sub46                     87.93       0.00       0.00       6.69      32.04      45.68      77.71        0.54   370.20   0.884
  sub47                     87.93       0.00       0.00       0.85      79.47       6.10      85.57        0.65   578.27   0.973
  sub48                     87.93       0.00       0.00       0.96      78.58       6.84      85.43        0.65   571.41   0.971
  sub49                     87.93       0.00       0.00       0.85      79.36       6.08      85.43        0.78   658.16   0.972
  sub50                     87.93       0.00       0.00       0.85      79.37       6.08      85.45        0.60   508.52   0.972
  sub51                     87.93       0.00       0.00       0.85      79.51       6.11      85.61        0.40   363.48   0.974
  sub52                     87.93       0.00       0.00       0.74      80.19       5.32      85.52        0.93   775.18   0.973
  sub53                     87.93       0.00       0.00       0.85      79.46       6.09      85.55        0.86   760.75   0.973
  sub54                     87.93       0.00       0.00       0.74      80.02       5.30      85.32        0.51   402.06   0.970
  sub55                     87.93       0.00       0.00       0.85      79.26       6.06      85.32        0.68   552.83   0.970
  sub56                     87.93       0.00       0.00       2.02      69.47      13.84      83.31        1.18   836.88   0.947
  sub57                     87.93       0.00       0.00       3.29      59.43      22.30      81.72        0.53   377.70   0.929
  sub58                     87.93       0.00       0.00       7.75      23.35      48.18      71.54        2.65  1256.05   0.814
  sub59                     87.93       0.00       0.00       8.18      19.88      46.43      66.31        1.52   615.16   0.754
  sub60                     87.93       0.00       0.00       1.27      75.97       9.07      85.04        1.12   963.63   0.967
  sub61                     87.93       0.00       0.00       1.81      71.68      12.77      84.46        1.55  1337.11   0.960
  sub62                     87.93       0.00       0.00       0.85      79.20       6.05      85.25        2.34  1860.64   0.969
  sub67                     87.93       0.00       0.00       0.85      79.26       6.06      85.32        1.59  1290.44   0.970
  sub68                     87.93       0.00       0.00       1.49      74.16      10.50      84.66        2.33  1914.65   0.963
  sub71                     87.93       0.00       0.00       0.85      78.89       6.01      84.89        2.22  1641.19   0.965
  sub72                     87.93       0.00       0.00       0.74      79.30       5.23      84.53        1.16   787.90   0.961
  sub73                     87.93       0.00       0.00       2.23      68.39      15.94      84.33        0.08    78.58   0.959
  sub74                     87.93       0.00       0.00       3.40      58.86      24.03      82.90        0.13   121.22   0.943
  sub75                     87.93       0.00       0.00       3.19      60.61      22.65      83.25        0.18   171.71   0.947
  sub76                     87.93       0.00       0.00       1.91      70.96      13.67      84.63        0.21   194.35   0.962
  sub77                     87.93       0.00       0.00       1.81      71.85      12.95      84.80        0.13   129.46   0.964
  sub78                     87.93       0.00       0.00       1.38      75.23       9.88      85.10        0.23   214.32   0.968
  sub79                     87.93       0.00       0.00       2.55      65.71      17.97      83.68        0.22   189.37   0.952
  sub80                     87.93       0.00       0.00       3.50      57.99      24.70      82.69        0.24   215.89   0.940
  sub81                     87.93       0.00       0.00       3.93      54.50      27.43      81.93        0.25   210.39   0.932
  sub82                     87.93       0.00       0.00       3.93      54.52      27.55      82.07        0.25   213.20   0.933
  sub83                     87.93       0.00       0.00       4.04      53.67      28.38      82.05        0.28   243.00   0.933
  sub84                     87.93       0.00       0.00       3.72      56.21      25.87      82.08        0.45   367.77   0.933
  sub85                     87.93       0.00       0.00       2.55      65.69      17.94      83.63        0.37   322.08   0.951
  sub86                     87.93       0.00       0.00       2.76      63.98      19.44      83.42        0.40   351.05   0.949
  sub87                     87.93       0.00       0.00       3.72      56.24      26.08      82.32        0.25   213.94   0.936
  sub88                     87.93       0.00       0.00       3.61      57.12      25.40      82.51        0.25   221.45   0.938
  sub89                     87.93       0.00       0.00       3.29      59.74      23.36      83.10        0.22   204.55   0.945
  sub90                     87.93       0.00       0.00       2.87      63.18      20.35      83.53        0.21   189.53   0.950
  sub91                     87.93       0.00       0.00       2.87      63.22      20.50      83.72        0.15   148.25   0.952
  sub92                     87.93       0.00       0.00       3.29      59.78      23.58      83.36        0.13   126.20   0.948
  sub93                     87.93       0.00       0.00       3.29      59.78      23.61      83.39        0.15   153.76   0.948
  sub94                     87.93       0.00       0.00       3.29      59.76      23.47      83.23        0.18   173.88   0.947
  sub95                     87.93       0.00       0.00       3.08      61.50      22.03      83.52        0.13   124.60   0.950
  sub96                     87.93       0.00       0.00       2.34      67.58      16.86      84.45        0.16   165.60   0.960
  sub97                     87.93       0.00       0.00       6.48      33.81      46.33      80.14        0.19   183.96   0.911
  sub98                     87.93       0.00       0.00       7.65      24.26      53.13      77.39        0.25   182.83   0.880
  sub99                     87.93       0.00       0.00       8.39      18.19      56.42      74.61        0.26   145.95   0.848
  sub100                    87.93       0.00       0.00       8.39      18.19      54.71      72.90        0.26   124.99   0.829
  sub101                    87.93       0.00       0.00       8.39      18.19      54.52      72.71        0.25   118.74   0.827
  sub102                    87.93       0.00       0.00       8.07      20.77      51.10      71.87        0.22   101.72   0.817
  sub103                    87.93       0.00       0.00       8.28      19.04      51.59      70.63        0.34   149.12   0.803
  sub104                    87.93       0.00       0.00       8.28      19.04      51.17      70.21        0.37   161.26   0.798
  sub105                    87.93       0.00       0.00       8.60      16.45      53.09      69.54        0.40   165.54   0.791
  sub106                    87.93       0.00       0.00       8.39      18.18      53.41      71.59        0.37   167.72   0.814
  sub107                    87.93       0.00       0.00       8.60      16.46      56.10      72.56        0.51   246.26   0.825
  sub108                    87.93       0.00       0.00       8.71      15.60      58.77      74.37        0.69   384.66   0.846
  sub109                    87.93       0.00       0.00       6.80      31.17      46.53      77.70        1.11   760.36   0.884
  sub110                    87.93       0.00       0.00       1.91      70.90      13.58      84.48        1.77  1596.09   0.961
  sub111                    87.93       0.00       0.00       2.76      64.00      19.48      83.48        0.72   633.71   0.949
  sub112                    87.93       0.00       0.00       2.23      68.33      15.83      84.16        0.66   602.81   0.957
  sub113                    87.93       0.00       0.00       1.49      74.37      10.63      85.00        0.59   540.20   0.967
  sub114                    87.93       0.00       0.00       1.38      75.24       9.89      85.13        0.56   520.35   0.968
  sub115                    87.93       0.00       0.00       1.27      76.09       9.13      85.22        0.63   575.59   0.969
  sub116                    87.93       0.00       0.00       4.25      51.88      29.35      81.24        0.15   119.28   0.924
  sub117                    87.93       0.00       0.00       4.35      51.05      30.26      81.30        0.37   303.42   0.925
  
  
  ******************
  Node Depth Summary
  ******************
  
  ---------------------------------------------------------------------------------
                                 Average  Maximum  Maximum  Time of Max    Reported
                                   Depth    Depth      HGL   Occurrence   Max Depth
  Node                 Type       Meters   Meters   Meters  days hr:min      Meters
  ---------------------------------------------------------------------------------
  WS02001211           JUNCTION     1.00     4.10     8.94     0  00:25        1.77
  WS02001212           JUNCTION     0.76     3.26     8.33     0  00:25        1.56
  WS02001213           JUNCTION     1.01     3.53     8.29     0  00:25        1.85
  WS02003069           JUNCTION     0.96     2.85     7.44     0  00:23        1.67
  WS02003072           JUNCTION     1.02     1.69     6.06     0  00:23        1.57
  WS02003073           JUNCTION     1.23     1.70     5.77     0  00:31        1.70
  WS02003076           JUNCTION     0.96     1.36     5.58     0  00:30        1.35
  WS02003060           JUNCTION     0.86     2.01     6.94     0  00:25        1.67
  WS02003066           JUNCTION     0.53     1.18     6.73     0  00:30        1.15
  WS02003059           JUNCTION     1.08     2.74     7.42     0  00:25        1.91
  WS02003115           JUNCTION     1.69     2.76     9.62     0  00:12        2.72
  WS02003116           JUNCTION     1.84     3.03     9.74     0  00:11        2.93
  WS02003118           JUNCTION     1.83     2.90     9.52     0  00:11        2.90
  WS02003215           JUNCTION     1.72     2.80     9.66     0  00:14        2.80
  WS02003110           JUNCTION     1.36     2.54     9.79     0  00:12        2.43
  WS02003111           JUNCTION     1.46     2.35     9.44     0  00:12        2.35
  WS02005155           JUNCTION     1.35     2.66     9.97     0  00:13        2.62
  WS02005154           JUNCTION     1.15     2.67    10.30     0  00:13        2.63
  WS02005193           JUNCTION     1.43     3.22    11.04     0  00:16        3.06
  WS02005196           JUNCTION     1.41     3.31    11.15     0  00:20        3.04
  WS02003067           JUNCTION     0.88     1.49     6.81     0  00:30        1.47
  WS02004401           JUNCTION     1.47     2.66     8.66     0  00:16        2.45
  WS02004402           JUNCTION     1.48     2.74     8.70     0  00:16        2.45
  WS02004403           JUNCTION     1.47     2.86     8.79     0  00:18        2.46
  WS02004404           JUNCTION     1.52     2.96     8.81     0  00:18        2.51
  WS02004406           JUNCTION     1.48     2.93     8.76     0  00:18        2.48
  WS02004409           JUNCTION     1.24     2.73     8.50     0  00:16        2.28
  WS02004410           JUNCTION     1.15     2.81     8.53     0  00:18        2.08
  WS02004411           JUNCTION     1.06     2.46     8.14     0  00:17        1.86
  WS02004412           JUNCTION     0.97     1.98     7.62     0  00:18        1.62
  WS02004413           JUNCTION     1.01     2.85     8.32     0  00:17        1.54
  WS02004405           JUNCTION     1.50     2.95     8.80     0  00:18        2.49
  WS02006109           JUNCTION     1.81     2.64     9.26     0  00:16        2.64
  WS02006110           JUNCTION     1.66     2.76     9.34     0  00:16        2.48
  WS02006111           JUNCTION     1.09     2.68     9.39     0  00:16        1.99
  WS02006112           JUNCTION     1.74     2.68     8.56     0  00:00        2.68
  WS02006113           JUNCTION     1.16     2.73     9.62     0  00:16        1.99
  WS02006115           JUNCTION     1.42     3.26     9.40     0  00:16        2.38
  WS02006116           JUNCTION     1.48     3.08     9.12     0  00:16        2.45
  WS02006230           JUNCTION     1.85     2.65     9.39     0  00:14        2.65
  WS02006231           JUNCTION     1.44     2.24     9.36     0  00:14        2.19
  WS02006232           JUNCTION     1.49     2.18     9.22     0  00:14        2.18
  WS02006234           JUNCTION     1.32     1.96     9.12     0  00:14        1.96
  WS02006235           JUNCTION     1.31     2.00     9.16     0  00:14        1.93
  WS02006238           JUNCTION     1.32     2.15     9.29     0  00:15        1.93
  WS02006240           JUNCTION     1.12     2.10     9.39     0  00:15        1.62
  WS02006242           JUNCTION     1.11     1.55     8.82     0  00:15        1.55
  WS02006243           JUNCTION     0.96     1.48     8.90     0  00:15        1.37
  WS02006245           JUNCTION     0.89     1.56     9.04     0  00:15        1.26
  WS02006247           JUNCTION     0.88     1.47     8.97     0  00:15        1.22
  WS02006248           JUNCTION     0.79     1.10     8.69     0  00:15        1.10
  WS02006249           JUNCTION     0.80     1.09     8.69     0  00:15        1.09
  WS02006239           JUNCTION     1.23     2.03     9.24     0  00:15        1.78
  WS02006251           JUNCTION     1.27     2.21     9.88     0  00:16        2.19
  WS02006252           JUNCTION     0.86     1.50     9.74     0  00:16        1.50
  WS02006253           JUNCTION     1.60     3.52    11.16     0  00:20        3.24
  WS02006256           JUNCTION     1.73     2.35     9.28     0  00:13        2.35
  WS02004138           JUNCTION     0.12     0.14     7.39     0  00:33        0.14
  WS02004139           JUNCTION     0.93     3.88     8.79     0  00:25        1.71
  WS02004407           JUNCTION     0.88     3.24     9.56     0  00:18        1.95
  WS02006228           JUNCTION     2.02     3.03     9.68     0  00:16        3.02
  WS02006229           JUNCTION     2.11     3.25     9.94     0  00:16        3.22
  WS02006280           JUNCTION     0.94     1.83    10.10     0  00:16        1.74
  WS02006284           JUNCTION     1.17     1.95    10.35     0  00:39        1.94
  WS02006287           JUNCTION     0.92     1.75    10.70     0  00:23        1.73
  WS02003091           JUNCTION     2.48     3.99     9.79     0  00:12        3.91
  WS02003203           JUNCTION     2.43     3.83     9.82     0  00:00        3.83
  WS6145               JUNCTION     0.60     2.32    10.42     0  00:24        2.27
  WS6147               JUNCTION     0.51     2.23    10.50     0  00:23        2.10
  WS6150               JUNCTION     0.50     2.21    10.54     0  00:23        2.08
  WS6152               JUNCTION     0.51     2.19    10.53     0  00:23        2.12
  WS6155               JUNCTION     0.47     2.10    10.50     0  00:23        2.08
  WS6156               JUNCTION     0.44     2.05    10.52     0  00:23        2.05
  WS6136               JUNCTION     0.49     1.90    10.85     0  00:24        1.90
  WS6140               JUNCTION     0.66     2.44    10.38     0  00:30        2.44
  WS6142               JUNCTION     0.60     2.33    10.40     0  00:24        2.29
  WS6325               JUNCTION     0.84     2.74    10.39     0  00:33        2.72
  WS6327               JUNCTION     0.73     2.59    10.40     0  00:33        2.56
  WS6329               JUNCTION     0.70     2.53    10.41     0  00:33        2.49
  WS6332               JUNCTION     0.62     2.52    10.56     0  00:22        2.35
  WS6158               JUNCTION     0.41     2.05    10.59     0  00:23        2.05
  WS6335               JUNCTION     0.60     2.60    10.67     0  00:22        2.30
  WS6338               JUNCTION     0.54     2.55    10.75     0  00:22        2.18
  WS6340               JUNCTION     0.48     2.50    10.84     0  00:22        2.05
  WS6342               JUNCTION     0.39     2.50    11.10     0  00:22        1.78
  WS6135               JUNCTION     0.99     2.89    10.39     0  00:33        2.87
  WS6396               JUNCTION     0.64     2.01     9.56     0  00:30        2.00
  WS6399               JUNCTION     0.40     1.36     8.79     0  00:30        1.35
  WS02003082           JUNCTION     1.27     2.43     7.50     0  00:11        1.92
  WS02003077           JUNCTION     0.46     0.84     5.84     0  00:31        0.84
  WS02003080           JUNCTION     0.87     2.54     7.47     0  00:11        1.29
  WS02003083           JUNCTION     1.61     3.52     8.55     0  00:10        2.39
  WS02003084           JUNCTION     1.72     2.93     8.03     0  00:10        2.59
  WS02003085           JUNCTION     1.78     3.08     8.25     0  00:11        2.71
  WS02003086           JUNCTION     1.99     3.38     8.58     0  00:11        3.00
  WS02003087           JUNCTION     2.23     3.56     8.78     0  00:12        3.35
  WS02003088           JUNCTION     2.38     4.14     9.43     0  00:00        3.60
  WS02003089           JUNCTION     2.47     4.09     9.55     0  00:00        3.79
  WS02003090           JUNCTION     2.66     4.20     9.63     0  00:12        4.04
  WS02003081           JUNCTION     1.05     2.38     7.43     0  00:11        1.60
  WS02003122           JUNCTION     2.02     3.30     9.67     0  00:11        3.10
  WS02003187           JUNCTION     2.05     3.11     9.44     0  00:11        3.11
  WS02003188           JUNCTION     2.02     2.97     9.23     0  00:11        2.97
  WS02003190           JUNCTION     2.00     2.84     9.04     0  00:11        2.84
  WS02003193           JUNCTION     1.98     2.85     9.09     0  00:11        2.85
  WS02003195           JUNCTION     1.99     2.93     9.18     0  00:11        2.93
  WS02003196           JUNCTION     2.10     3.31     9.49     0  00:11        3.13
  WS02003198           JUNCTION     2.12     3.88    10.06     0  00:11        3.23
  WS02003200           JUNCTION     1.84     3.28     9.72     0  00:11        2.93
  WS02003201           JUNCTION     2.10     3.22     9.36     0  00:11        3.22
  WS02003202           JUNCTION     2.24     4.17    10.23     0  00:00        3.48
  WS02004041           JUNCTION     0.63     0.98     5.34     0  00:31        0.98
  WSA6400              JUNCTION     1.15     2.42     8.26     0  00:30        2.40
  WS6400               JUNCTION     0.57     1.69     8.34     0  00:30        1.67
  WSF208               JUNCTION     0.83     2.16     8.25     0  00:18        1.92
  WSF207               JUNCTION     0.70     2.03     8.17     0  00:18        1.66
  WSF206               JUNCTION     0.76     1.96     7.89     0  00:18        1.72
  WSF205               JUNCTION     0.70     1.65     7.55     0  00:18        1.59
  WSF204               JUNCTION     1.27     2.40     7.56     0  00:17        2.15
  WSF203               JUNCTION     0.64     1.52     7.23     0  00:18        1.35
  WSF202               JUNCTION     0.54     1.20     6.93     0  00:30        1.17
  WSF201               JUNCTION     0.46     1.25     6.98     0  00:25        1.03
  WSF200               JUNCTION     0.67     1.83     7.06     0  00:25        1.45
  HS02004901           JUNCTION     0.78     1.42    11.24     0  00:18        1.42
  HS02004881           JUNCTION     0.68     2.15    11.18     0  00:20        1.97
  HS02004876           JUNCTION     0.82     2.22    11.25     0  00:26        2.22
  HS02004870           JUNCTION     0.72     2.10    11.39     0  00:20        2.08
  HS02004862           JUNCTION     0.73     2.00    11.38     0  00:20        2.00
  HS02004856           JUNCTION     0.76     2.07    11.50     0  00:21        2.04
  HS02004852           JUNCTION     0.70     2.07    11.58     0  00:21        1.99
  HS02004848           JUNCTION     0.68     2.02    11.62     0  00:21        1.93
  HS02004842           JUNCTION     1.00     2.22    11.49     0  00:21        2.22
  HS02004837           JUNCTION     0.71     2.04    11.62     0  00:19        1.93
  HS02004830           JUNCTION     0.77     2.03    11.50     0  00:19        1.99
  HS02004824           JUNCTION     0.80     2.01    11.41     0  00:21        2.01
  HS02004817           JUNCTION     1.27     2.43    11.28     0  00:21        2.40
  HS02004807           JUNCTION     0.93     1.92    11.09     0  00:19        1.92
  HS02004802           JUNCTION     0.92     1.81    10.94     0  00:23        1.79
  HS02004799           JUNCTION     0.99     1.76    10.97     0  00:19        1.76
  HS02004792           JUNCTION     0.81     1.60    11.12     0  00:18        1.60
  HS02004788           JUNCTION     0.64     1.42    11.32     0  00:18        1.41
  HS02004785           JUNCTION     0.67     1.49    11.39     0  00:18        1.39
  HS02004777           JUNCTION     0.79     1.48    11.28     0  00:18        1.47
  HS02004770           JUNCTION     0.77     1.42    11.25     0  00:18        1.42
  HS02004480           JUNCTION     0.89     1.67    10.91     0  00:21        1.63
  HS02004479           JUNCTION     0.92     1.69    10.89     0  00:21        1.66
  HS02004478           JUNCTION     0.79     1.59    10.82     0  00:23        1.58
  HS02004053           JUNCTION     0.32     1.90    10.67     0  00:23        1.08
  HS02004052           JUNCTION     0.40     1.50    11.15     0  00:22        1.37
  HS02004049           JUNCTION     0.24     0.99    11.68     0  00:23        0.86
  HS02004048           JUNCTION     0.56     1.70    12.60     0  00:22        1.70
  HS02004046           JUNCTION     0.53     1.80    13.52     0  00:25        1.80
  HS02004043           JUNCTION     0.35     2.24    14.93     0  00:25        2.24
  HS02004041           JUNCTION     0.21     1.99    17.43     0  00:25        1.71
  HS02004038           JUNCTION     0.16     2.01    20.69     0  00:26        0.83
  HS02004036           JUNCTION     0.00     0.00    22.46     0  00:00        0.00
  HS02004034           JUNCTION     0.00     0.00    26.83     0  00:00        0.00
  HS02004028           JUNCTION     0.20     0.51    37.36     0  00:22        0.51
  HS02004027           JUNCTION     0.15     0.34    36.46     0  00:22        0.34
  HS02004026           JUNCTION     0.15     0.35    35.75     0  00:22        0.34
  HS02004024           JUNCTION     0.16     0.41    34.63     0  00:22        0.39
  HS02004022           JUNCTION     0.25     0.80    33.84     0  00:21        0.80
  HS02004021           JUNCTION     0.29     0.81    32.54     0  00:19        0.81
  HS02004019           JUNCTION     0.35     0.80    31.76     0  00:18        0.80
  HS02004018           JUNCTION     0.24     0.60    33.81     0  00:21        0.60
  HS02004017           JUNCTION     0.22     0.53    34.37     0  00:22        0.53
  HS02004013           JUNCTION     0.17     0.72    35.86     0  00:25        0.72
  HS02004010           JUNCTION     0.06     0.22    38.09     0  00:26        0.22
  HS02003174           JUNCTION     0.20     0.53     6.07     0  00:28        0.53
  HS02003171           JUNCTION     0.22     0.59     6.27     0  00:27        0.59
  HS02003170           JUNCTION     0.24     0.54     6.99     0  00:27        0.53
  HS02003168           JUNCTION     0.13     0.37     6.87     0  00:27        0.37
  HS02003166           JUNCTION     0.24     0.55     7.02     0  00:26        0.54
  HS02003162           JUNCTION     0.21     0.42    30.67     0  00:43        0.42
  HS02003160           JUNCTION     0.17     0.42    28.47     0  00:26        0.42
  HS02003150           JUNCTION     0.18     0.44    26.46     0  00:26        0.44
  HS02003148           JUNCTION     0.22     0.83    22.57     0  00:25        0.83
  HS02003145           JUNCTION     0.28     0.81    14.68     0  00:23        0.81
  HS02003143           JUNCTION     0.41     0.80    13.27     0  00:15        0.80
  HS02003138           JUNCTION     0.40     0.70     7.19     0  01:18        0.70
  HS02003136           JUNCTION     1.26     2.28    10.00     0  00:12        2.28
  HS02003125           JUNCTION     1.29     2.40     9.85     0  00:14        2.35
  HS02003122           JUNCTION     1.34     2.54     9.97     0  00:14        2.52
  HS02003119           JUNCTION     1.13     2.60    10.32     0  00:15        2.39
  HS02003116           JUNCTION     0.87     2.43    10.55     0  00:16        2.02
  HS02003111           JUNCTION     0.50     1.24    10.25     0  00:26        1.12
  HS02003108           JUNCTION     0.42     1.58    10.69     0  00:16        1.12
  HS02003100           JUNCTION     0.31     1.51    10.75     0  00:25        1.07
  HS02003088           JUNCTION     0.26     1.67    10.97     0  00:25        1.11
  HS02003084           JUNCTION     0.15     1.63    11.06     0  00:25        0.95
  HS02003079           JUNCTION     0.11     1.60    11.11     0  00:25        0.88
  HS02003077           JUNCTION     0.04     1.48    11.22     0  00:25        0.71
  HS02003065           JUNCTION     0.73     1.80    11.04     0  00:14        1.67
  HS02003056           JUNCTION     0.76     1.90    10.84     0  00:14        1.76
  HS02003053           JUNCTION     0.59     1.66    10.96     0  00:14        1.66
  HS02003042           JUNCTION     0.43     1.69    11.35     0  00:16        1.48
  HS02003039           JUNCTION     0.46     1.80    11.45     0  00:21        1.59
  HS02003036           JUNCTION     0.28     1.41    11.47     0  00:21        1.40
  HS02003028           JUNCTION     0.39     1.40    11.14     0  00:21        1.40
  HS02003021           JUNCTION     0.42     1.55    10.92     0  00:20        1.49
  HS02003018           JUNCTION     0.43     1.48    10.69     0  00:20        1.48
  HS02003017           JUNCTION     0.44     1.48    10.64     0  00:20        1.48
  HS02003013           JUNCTION     0.43     1.47    10.52     0  00:20        1.42
  HS02003010           JUNCTION     0.43     1.45    10.26     0  00:20        1.30
  HS02003007           JUNCTION     0.38     1.34     9.95     0  00:20        1.08
  HS02003004           JUNCTION     0.43     1.07     9.39     0  00:20        0.98
  HS02003001           JUNCTION     0.12     0.33     8.62     0  00:27        0.33
  YS02001738           JUNCTION     0.00     0.00     8.89     0  00:00        0.00
  YS02001739           JUNCTION     0.00     0.00     8.37     0  00:00        0.00
  YS02001742           JUNCTION     0.00     0.00     8.49     0  00:00        0.00
  YS02001745           JUNCTION     0.16     0.81     8.32     0  00:27        0.66
  YS02001748           JUNCTION     0.23     2.27     9.35     0  00:26        1.12
  YS02001751           JUNCTION     0.26     2.20     9.08     0  00:25        1.26
  YS02001754           JUNCTION     0.31     2.20     8.81     0  00:25        1.50
  YS02001762           JUNCTION     0.52     2.15     8.55     0  00:25        1.91
  YS02001765           JUNCTION     0.51     2.10     8.55     0  00:25        1.89
  YS02001767           JUNCTION     0.52     2.03     8.52     0  00:25        1.89
  YS02001770           JUNCTION     0.58     1.95     8.44     0  00:25        1.95
  YS02001774           JUNCTION     0.65     2.05     8.47     0  00:25        1.99
  YS02001779           JUNCTION     0.40     1.68     8.37     0  00:25        1.68
  YS02001882           JUNCTION     0.84     1.83     8.55     0  00:20        1.69
  YS02001884           JUNCTION     0.93     1.91     8.53     0  00:20        1.80
  YS02001759           JUNCTION     0.52     2.21     8.57     0  00:25        1.90
  YS02001887           JUNCTION     1.01     1.91     8.45     0  00:20        1.88
  YS02001890           JUNCTION     1.03     1.81     8.32     0  00:20        1.81
  YS02001898           JUNCTION     0.79     1.77     8.51     0  00:20        1.56
  YS02001901           JUNCTION     0.91     1.87     8.48     0  00:20        1.67
  YS02001904           JUNCTION     0.88     1.84     8.47     0  00:20        1.63
  YS02001907           JUNCTION     1.21     1.96     8.25     0  00:20        1.96
  YS02001910           JUNCTION     1.05     2.04     8.54     0  00:20        2.01
  YS02001915           JUNCTION     0.89     2.00     8.72     0  00:20        2.00
  YS02001918           JUNCTION     0.64     1.81     8.88     0  00:23        1.72
  YS02001920           JUNCTION     0.73     2.10     9.11     0  00:23        1.82
  YS02001923           JUNCTION     0.55     2.03     9.29     0  00:23        1.59
  YS02001926           JUNCTION     0.53     1.90     9.35     0  00:22        1.45
  YS02001929           JUNCTION     0.38     1.78     9.47     0  00:23        1.23
  YS02001932           JUNCTION     0.29     1.77     9.57     0  00:23        1.12
  YS02001935           JUNCTION     0.23     1.75     9.68     0  00:23        0.99
  YS02001757           JUNCTION     0.49     2.10     8.36     0  00:25        1.78
  YS02001895           JUNCTION     0.79     1.75     8.50     0  00:20        1.56
  YS02005679           JUNCTION     0.00     0.02    10.26     0  00:26        0.01
  YS02005559           JUNCTION     0.11     0.24    10.19     0  00:28        0.24
  YS02005651           JUNCTION     0.07     0.22    10.99     0  00:27        0.21
  YS02005670           JUNCTION     0.07     0.25    10.71     0  00:26        0.25
  YS02005547           JUNCTION     0.05     0.17    10.71     0  00:26        0.17
  YS02005549           JUNCTION     0.08     0.58    11.49     0  00:25        0.40
  YS02005550           JUNCTION     0.11     0.49    11.12     0  00:26        0.47
  YS02005551           JUNCTION     0.06     0.16    10.53     0  00:27        0.16
  YS02005553           JUNCTION     0.14     0.53    10.89     0  00:25        0.41
  YS02005554           JUNCTION     0.07     0.15    10.39     0  00:28        0.15
  YS02005556           JUNCTION     0.14     0.38    10.44     0  00:26        0.34
  YS02005557           JUNCTION     0.07     0.15    10.12     0  00:28        0.15
  YS02005560           JUNCTION     0.08     0.17     9.91     0  00:28        0.17
  YS02005562           JUNCTION     0.13     0.27    10.01     0  00:26        0.25
  YS02005563           JUNCTION     0.08     0.15     9.82     0  00:27        0.15
  YS02005565           JUNCTION     0.12     0.25     9.96     0  00:28        0.25
  YS02005566           JUNCTION     0.10     0.20     9.59     0  00:28        0.20
  YS02005568           JUNCTION     0.16     0.53    10.03     0  00:25        0.45
  YS02005569           JUNCTION     0.11     0.23     9.56     0  00:28        0.23
  YS02005598           JUNCTION     0.27     1.07    10.91     0  00:21        1.07
  YS02005600           JUNCTION     0.25     1.02    10.68     0  00:21        1.02
  YS02005602           JUNCTION     0.58     2.15    10.43     0  00:22        2.15
  YS02005603           JUNCTION     0.17     0.93     9.06     0  00:22        0.58
  YS02005609           JUNCTION     0.09     0.29     9.18     0  00:27        0.28
  YS02005653           JUNCTION     0.15     0.87    11.84     0  00:25        0.87
  YS02005654           JUNCTION     0.15     0.65    11.41     0  00:29        0.65
  YS02005655           JUNCTION     0.05     0.15    10.78     0  00:25        0.15
  YS02005595           JUNCTION     0.40     1.36    11.04     0  00:19        1.36
  YS02005658           JUNCTION     0.12     0.68    11.59     0  00:27        0.64
  YS02005659           JUNCTION     0.06     0.17    10.83     0  00:27        0.16
  YS02005661           JUNCTION     0.16     0.89    11.60     0  00:26        0.88
  YS02005662           JUNCTION     0.05     0.15    10.77     0  00:27        0.15
  YS02005664           JUNCTION     0.15     0.79    11.37     0  00:27        0.75
  YS02005665           JUNCTION     0.05     0.14    10.70     0  00:27        0.13
  YS02005668           JUNCTION     0.05     0.16    10.32     0  00:27        0.16
  YS02005667           JUNCTION     0.31     1.08    11.10     0  00:26        1.07
  YS02005571           JUNCTION     0.20     0.77    10.25     0  00:27        0.63
  YS02005572           JUNCTION     0.13     0.51     9.87     0  00:27        0.37
  YS02005576           JUNCTION     0.14     0.46    10.21     0  00:26        0.40
  YS02005577           JUNCTION     0.12     0.26     9.74     0  00:28        0.26
  YS02005579           JUNCTION     0.36     1.12    10.74     0  00:25        1.12
  YS02005580           JUNCTION     0.22     0.93    10.47     0  00:25        0.69
  YS02005582           JUNCTION     0.35     0.86    10.94     0  00:24        0.86
  YS02005583           JUNCTION     0.18     0.66    10.66     0  00:24        0.41
  YS02005612           JUNCTION     0.49     1.59     9.72     0  00:25        1.59
  YS02005615           JUNCTION     0.05     0.17    11.66     0  00:26        0.17
  YS02005616           JUNCTION     0.04     0.13    10.95     0  00:26        0.13
  YS02005618           JUNCTION     0.08     0.48    11.34     0  00:25        0.40
  YS02005619           JUNCTION     0.05     0.16    10.71     0  00:26        0.16
  YS02005621           JUNCTION     0.09     0.48    11.59     0  00:25        0.45
  YS02005622           JUNCTION     0.04     0.13    11.09     0  00:26        0.13
  YS02005625           JUNCTION     0.03     0.11    11.13     0  00:26        0.11
  YS02005627           JUNCTION     0.11     0.54    11.47     0  00:26        0.53
  YS02005628           JUNCTION     0.04     0.12    11.02     0  00:26        0.12
  YS02005630           JUNCTION     0.11     0.60    11.67     0  00:26        0.59
  YS02005631           JUNCTION     0.05     0.14    11.02     0  00:27        0.14
  YS02005633           JUNCTION     0.10     0.62    11.75     0  00:26        0.62
  YS02005634           JUNCTION     0.05     0.16    10.99     0  00:27        0.16
  YS02005636           JUNCTION     0.13     0.77    11.76     0  00:27        0.74
  YS02005637           JUNCTION     0.06     0.18    10.94     0  00:27        0.18
  YS02005639           JUNCTION     0.11     0.64    11.27     0  00:27        0.62
  YS02005640           JUNCTION     0.06     0.18    10.51     0  00:27        0.18
  YS02005642           JUNCTION     0.09     1.11    11.94     0  00:26        0.54
  YS02005644           JUNCTION     0.17     0.87    11.98     0  00:25        0.87
  YS02005645           JUNCTION     0.08     0.22    11.03     0  00:25        0.22
  YS02005647           JUNCTION     0.27     1.03    11.92     0  00:24        1.03
  YS02005648           JUNCTION     0.09     0.23    11.02     0  00:24        0.23
  YS02005650           JUNCTION     0.17     1.02    11.91     0  00:26        1.01
  YS02005671           JUNCTION     0.04     0.11    10.34     0  00:26        0.11
  YS02005673           JUNCTION     0.08     0.46    10.82     0  00:26        0.27
  YS02005674           JUNCTION     0.05     0.16    10.05     0  00:26        0.16
  YS02005676           JUNCTION     0.00     0.02    10.26     0  00:26        0.01
  YS02005680           JUNCTION     0.05     0.16    10.26     0  00:26        0.16
  YS02005682           JUNCTION     0.00     0.00    10.06     0  00:00        0.00
  YS02005683           JUNCTION     0.03     0.09     9.99     0  00:26        0.09
  YS02005376           JUNCTION     0.64     1.01    11.10     0  00:07        1.01
  YS02005378           JUNCTION     1.11     1.63    11.15     0  00:09        1.61
  YS02005381           JUNCTION     1.02     1.57    11.20     0  00:06        1.57
  YS02005624           JUNCTION     0.23     0.62    11.50     0  00:26        0.61
  YS02005384           JUNCTION     0.34     1.26    10.91     0  00:09        0.53
  YS02005677           JUNCTION     0.06     0.18    10.26     0  00:26        0.18
  YSB1105              JUNCTION     0.32     1.54    11.02     0  00:26        0.79
  YSB1106              JUNCTION     0.30     1.70    11.54     0  00:24        0.94
  YSB1109              JUNCTION     0.38     1.68    11.62     0  00:26        1.27
  YSB1112              JUNCTION     0.41     1.93    12.07     0  00:26        1.53
  YSB1115              JUNCTION     0.38     1.90    12.20     0  00:24        1.82
  YSB1118              JUNCTION     0.41     1.80    12.34     0  00:24        1.76
  YSB1121              JUNCTION     0.48     1.70    12.37     0  00:24        1.70
  YSB1124              JUNCTION     0.36     1.60    12.43     0  00:24        1.56
  YSB1128              JUNCTION     0.57     1.85    12.43     0  00:19        1.50
  YSB1132              JUNCTION     0.63     1.90    12.35     0  00:19        1.62
  YSB1228              JUNCTION     0.05     0.19    11.03     0  00:26        0.18
  YSB1202              JUNCTION     0.90     1.50    12.39     0  00:16        1.46
  YSB1135              JUNCTION     0.74     2.00    12.26     0  00:19        1.81
  YSB1138              JUNCTION     0.83     1.90    12.07     0  00:19        1.90
  YSB1141              JUNCTION     0.84     2.00    11.83     0  00:19        1.85
  YSB1145              JUNCTION     0.85     2.00    11.69     0  00:19        1.84
  YSB1148              JUNCTION     0.89     2.00    11.50     0  00:19        1.88
  YSB1151              JUNCTION     1.05     2.09    11.32     0  00:19        2.00
  YSB1154              JUNCTION     1.19     2.10    11.16     0  00:19        2.10
  YSB1198              JUNCTION     0.29     1.60    12.39     0  00:20        1.18
  YSB1192              JUNCTION     0.53     1.90    12.17     0  00:19        1.70
  YSB6556              JUNCTION     1.01     1.80    10.97     0  00:19        1.80
  YSB1205              JUNCTION     1.09     1.65    12.35     0  00:16        1.65
  YSB1209              JUNCTION     1.08     1.65    12.22     0  00:16        1.65
  YSB1212              JUNCTION     0.99     1.60    12.13     0  00:16        1.60
  YSB1215              JUNCTION     1.02     1.69    12.04     0  00:23        1.69
  YSB1218              JUNCTION     1.05     1.75    11.94     0  00:23        1.75
  YSB1221              JUNCTION     0.99     1.84    11.81     0  00:26        1.59
  YSB1224              JUNCTION     0.88     1.82    11.67     0  00:26        1.36
  YSB1195              JUNCTION     0.47     1.90    12.28     0  00:19        1.59
  YSB1189              JUNCTION     0.61     1.80    11.96     0  00:19        1.80
  YSB1186              JUNCTION     0.66     1.94    11.81     0  00:20        1.74
  YSB1183              JUNCTION     0.78     2.05    11.64     0  00:19        1.88
  YSB1180              JUNCTION     0.79     1.95    11.46     0  00:19        1.82
  YSB1177              JUNCTION     1.03     2.05    11.24     0  00:19        2.02
  YSB1174              JUNCTION     1.08     1.95    11.06     0  00:23        1.95
  YSB1171              JUNCTION     1.23     1.95    10.85     0  00:18        1.95
  YS02006553           JUNCTION     1.21     2.04     8.32     0  00:21        2.00
  YS02006561           JUNCTION     0.44     1.29     7.95     0  00:21        0.94
  YS02006562           JUNCTION     0.98     1.92     8.43     0  00:21        1.84
  YS02006556           JUNCTION     1.18     2.09     8.40     0  00:21        2.01
  YS02006558           JUNCTION     1.22     2.15     8.42     0  00:21        2.08
  YS6132               JUNCTION     0.59     3.25    10.57     0  00:25        1.53
  YS6137               JUNCTION     0.36     2.90    10.69     0  00:25        1.51
  YS6189               JUNCTION     0.47     2.80    10.59     0  00:25        1.85
  YS6184               JUNCTION     0.48     2.65    10.54     0  00:24        2.11
  YS6179               JUNCTION     0.43     2.60    10.58     0  00:24        2.09
  YS6176               JUNCTION     0.34     2.40    10.60     0  00:25        1.90
  YS6171               JUNCTION     0.34     2.10    10.51     0  00:25        1.91
  YS6168               JUNCTION     0.36     2.00    10.51     0  00:25        2.00
  YS6164               JUNCTION     0.21     1.90    10.63     0  00:25        1.78
  YS6162               JUNCTION     0.27     2.10    10.75     0  00:25        1.86
  YS6187               JUNCTION     0.51     2.75    10.53     0  00:25        1.95
  YS6363               JUNCTION     0.38     3.05    10.84     0  00:25        1.31
  YS6360               JUNCTION     0.49     3.00    10.80     0  00:25        1.54
  YS6354               JUNCTION     0.52     2.60    10.75     0  00:25        2.00
  YS6351               JUNCTION     0.61     2.50    10.71     0  00:25        2.28
  YS6350               JUNCTION     0.68     2.50    10.72     0  00:24        2.46
  YS6348               JUNCTION     0.65     2.45    10.85     0  00:23        2.45
  YS6344               JUNCTION     0.51     2.36    10.96     0  00:36        2.26
  YS6375               JUNCTION     0.11     0.40     8.82     0  00:27        0.39
  YS6377               JUNCTION     0.16     0.46     8.82     0  00:27        0.46
  YS6381               JUNCTION     0.18     0.54     8.67     0  00:27        0.53
  YS6386               JUNCTION     0.21     0.63     8.61     0  00:27        0.62
  YS6390               JUNCTION     0.41     0.71     8.40     0  00:27        0.71
  YS6394               JUNCTION     0.11     0.30     8.22     0  00:27        0.30
  YS6404               JUNCTION     0.53     3.00    10.23     0  00:24        1.68
  YS6401               JUNCTION     0.17     0.43     7.64     0  00:25        0.41
  YS02004319           JUNCTION     0.38     1.18    20.80     0  00:18        1.18
  YS02004320           JUNCTION     0.00     0.00    22.64     0  00:44        0.00
  YS02004321           JUNCTION     0.00     0.00    26.80     0  00:31        0.00
  YS02004307           JUNCTION     0.16     0.50    11.03     0  00:31        0.50
  YS02004309           JUNCTION     0.85     1.55    13.07     0  00:08        1.55
  YS02004312           JUNCTION     0.60     1.48    14.91     0  00:16        1.48
  YS02004314           JUNCTION     0.43     1.28    16.99     0  00:17        1.28
  YS02004316           JUNCTION     0.44     1.36    19.13     0  00:18        1.36
  YS02001783           JUNCTION     0.65     1.55     7.69     0  00:21        1.27
  YS02001784           JUNCTION     0.62     1.33     7.40     0  00:21        1.14
  YS02001786           JUNCTION     0.50     1.02     7.05     0  00:21        0.89
  YS02001788           JUNCTION     0.36     0.63     6.60     0  00:25        0.62
  YS02001790           JUNCTION     0.41     0.73     6.37     0  00:23        0.71
  YS02001791           JUNCTION     0.25     0.44     5.91     0  00:23        0.43
  YS02001793           JUNCTION     0.13     0.30     5.13     0  00:39        0.27
  YS02003309           JUNCTION     0.56     1.21     9.77     0  00:12        1.04
  YS02003306           JUNCTION     0.63     1.16     9.60     0  00:12        1.16
  YS02003269           JUNCTION     0.12     0.17     7.76     0  00:19        0.17
  YS02003272           JUNCTION     0.34     1.73     9.46     0  00:12        0.58
  YS02003278           JUNCTION     0.68     1.45     9.37     0  00:12        1.21
  YS02003281           JUNCTION     0.75     1.39     9.47     0  00:12        1.39
  YS02003284           JUNCTION     0.82     1.40     9.41     0  00:12        1.40
  YS02003287           JUNCTION     0.75     1.27     9.34     0  00:12        1.27
  YS02003290           JUNCTION     0.62     1.17     9.45     0  00:11        1.10
  YS02003294           JUNCTION     0.76     1.24     9.42     0  00:12        1.24
  YS02003275           JUNCTION     0.52     1.51     9.42     0  00:12        0.91
  YS02003297           JUNCTION     0.74     1.22     9.43     0  00:12        1.22
  YS02003300           JUNCTION     0.68     1.15     9.42     0  00:12        1.15
  YS02003303           JUNCTION     0.67     1.14     9.46     0  00:11        1.14
  YSB1227              JUNCTION     0.02     0.13    11.03     0  00:26        0.13
  CaochengRainPumpOutfall1 OUTFALL      0.00     0.00     6.00     0  00:00        0.00
  JiankangRainPumpOutfall2 OUTFALL      0.00     0.00     6.00     0  00:00        0.00
  JiankangRainPumpOutfall1 OUTFALL      0.00     0.00     6.00     0  00:00        0.00
  CaochengRainPumpOutfall2 OUTFALL      0.00     0.00     6.00     0  00:00        0.00
  YS02005684           OUTFALL      0.03     0.09     8.50     0  00:26        0.09
  YS02005681           OUTFALL      0.05     0.16     9.38     0  00:26        0.15
  YS02005678           OUTFALL      0.06     0.18     8.71     0  00:26        0.17
  YS02005675           OUTFALL      0.05     0.16     8.70     0  00:27        0.16
  YS02005672           OUTFALL      0.04     0.11     8.45     0  00:26        0.11
  YS02005669           OUTFALL      0.05     0.16     8.87     0  00:27        0.15
  YS02005666           OUTFALL      0.05     0.14     8.82     0  00:27        0.13
  YS02005663           OUTFALL      0.05     0.15     8.89     0  00:27        0.15
  YS02005660           OUTFALL      0.06     0.17     8.98     0  00:27        0.16
  YS02005657           OUTFALL      0.00     0.00     8.74     0  00:00        0.00
  YS02005652           OUTFALL      0.07     0.22     8.84     0  00:27        0.21
  YS02005649           OUTFALL      0.09     0.23     8.93     0  00:24        0.23
  YS02005646           OUTFALL      0.08     0.22     8.22     0  00:25        0.22
  YS02005643           OUTFALL      0.08     0.30     8.86     0  00:25        0.30
  YS02005641           OUTFALL      0.06     0.18     8.87     0  00:27        0.17
  YS02005638           OUTFALL      0.06     0.18     8.84     0  00:27        0.18
  YS02005635           OUTFALL      0.05     0.16     8.82     0  00:27        0.15
  YS02005632           OUTFALL      0.05     0.14     8.70     0  00:27        0.14
  YS02005629           OUTFALL      0.04     0.12     8.60     0  00:26        0.12
  YS02005626           OUTFALL      0.03     0.11     8.63     0  00:26        0.11
  YS02005623           OUTFALL      0.04     0.12     8.60     0  00:26        0.12
  YS02005620           OUTFALL      0.05     0.16     8.95     0  00:26        0.15
  YS02005617           OUTFALL      0.04     0.13     8.97     0  00:26        0.13
  YSB1103              OUTFALL      0.31     0.60     8.60     0  00:24        0.60
  YSB1229              OUTFALL      0.05     0.19     8.99     0  00:26        0.18
  YS02005548           OUTFALL      0.05     0.17     9.17     0  00:26        0.17
  YS02005552           OUTFALL      0.06     0.16     8.79     0  00:27        0.16
  YS02005555           OUTFALL      0.07     0.15     8.88     0  00:28        0.15
  YS02005558           OUTFALL      0.07     0.15     8.86     0  00:28        0.15
  YS02005561           OUTFALL      0.08     0.17     8.85     0  00:28        0.17
  YS02005564           OUTFALL      0.07     0.15     8.63     0  00:27        0.15
  YS02005567           OUTFALL      0.10     0.20     8.73     0  00:28        0.20
  YS02005570           OUTFALL      0.11     0.23     8.95     0  00:28        0.23
  YS02005574           OUTFALL      0.13     0.29     9.13     0  00:28        0.29
  YS02005578           OUTFALL      0.12     0.29     9.06     0  00:28        0.29
  WS02005134           OUTFALL      0.00     0.00     8.74     0  00:00        0.00
  YS02005581           OUTFALL      0.15     0.30     9.10     0  00:25        0.30
  YS02005584           OUTFALL      0.15     0.30     9.26     0  00:23        0.30
  YS02005593           OUTFALL      0.20     0.28     9.00     0  00:32        0.28
  YS02005596           OUTFALL      0.14     0.30     8.84     0  00:19        0.30
  YS02005374           OUTFALL      0.13     0.30     8.54     0  00:20        0.30
  YS02005375           OUTFALL      0.13     0.30     8.69     0  00:20        0.30
  YS02005607           OUTFALL      0.12     0.30     7.53     0  00:21        0.30
  YS02005610           OUTFALL      0.09     0.26     8.88     0  00:27        0.26
  YS02005613           OUTFALL      0.14     0.30     8.58     0  00:23        0.30
  HS02003172           OUTFALL      0.20     0.53     5.98     0  00:28        0.53
  YS6395               OUTFALL      0.11     0.30     6.73     0  00:27        0.30
  YS6405               OUTFALL      0.17     0.41     3.86     0  00:26        0.41
  WSC                  OUTFALL      0.57     0.80     5.00     0  00:22        0.80
  JiankangQianchi      STORAGE      2.52     4.21     5.01     0  01:01        4.12
  CaochengTiaoxuchi    STORAGE      0.90     1.43     6.93     0  00:39        1.43
  XierchiQianchi       STORAGE      6.97     7.47     5.47     0  02:02        7.47
  
  
  *******************
  Node Inflow Summary
  *******************
  
  -------------------------------------------------------------------------------------------------
                                  Maximum  Maximum                  Lateral       Total        Flow
                                  Lateral    Total  Time of Max      Inflow      Inflow     Balance
                                   Inflow   Inflow   Occurrence      Volume      Volume       Error
  Node                 Type           LPS      LPS  days hr:min    10^6 ltr    10^6 ltr     Percent
  -------------------------------------------------------------------------------------------------
  WS02001211           JUNCTION      7.35   601.37     0  00:20      0.0539        1.31       2.616
  WS02001212           JUNCTION      0.00   641.12     0  00:19           0        1.33       1.116
  WS02001213           JUNCTION      0.00   737.46     0  00:19           0        1.38       1.536
  WS02003069           JUNCTION      0.32  2518.81     0  00:31     0.00235        9.72       0.270
  WS02003072           JUNCTION      0.00  2518.93     0  00:31           0        9.73       0.295
  WS02003073           JUNCTION      1.82  3087.37     0  00:31      0.0134        12.6       0.147
  WS02003076           JUNCTION      0.00  3087.50     0  00:31           0        12.5       0.186
  WS02003060           JUNCTION     16.53  2518.63     0  00:31       0.121        9.92       0.257
  WS02003066           JUNCTION      0.00  2450.69     0  00:26           0        8.53       0.042
  WS02003059           JUNCTION      0.00   869.32     0  00:19           0        1.45       2.644
  WS02003115           JUNCTION      0.00   477.09     0  00:21           0        1.18      -0.021
  WS02003116           JUNCTION      0.00   366.22     0  00:11           0       0.974       0.035
  WS02003118           JUNCTION      0.15   523.18     0  00:11    4.65e-06       0.977      -0.036
  WS02003215           JUNCTION      0.19  3103.43     0  00:26     2.3e-05        3.35      -0.054
  WS02003110           JUNCTION      0.18   576.09     0  00:27     0.00132       0.649      -0.052
  WS02003111           JUNCTION      1.57  1054.50     0  00:27      0.0107        1.76      -0.047
  WS02005155           JUNCTION      0.38   576.00     0  00:27      0.0028       0.637      -0.058
  WS02005154           JUNCTION    575.59   575.59     0  00:27       0.627       0.629       0.158
  WS02005193           JUNCTION      0.00    76.06     0  00:16           0      0.0204      -0.142
  WS02005196           JUNCTION      0.00    26.31     0  00:08           0     0.00578       0.695
  WS02003067           JUNCTION      0.00  1927.16     0  00:25           0        7.02       0.096
  WS02004401           JUNCTION      0.00  1126.17     0  00:17           0        5.03       0.356
  WS02004402           JUNCTION      0.00  1126.11     0  00:17           0        5.03       0.342
  WS02004403           JUNCTION      0.00  1126.56     0  00:17           0        5.03       0.314
  WS02004404           JUNCTION      0.16  1126.89     0  01:08     0.00119        5.03       0.239
  WS02004406           JUNCTION      0.00  1127.87     0  00:17           0        5.04       0.596
  WS02004409           JUNCTION      0.25  1861.33     0  00:23    0.000407        7.21       0.179
  WS02004410           JUNCTION      0.00  1926.64     0  00:25           0        7.32       0.200
  WS02004411           JUNCTION      0.00  1926.83     0  00:25           0        7.08       0.217
  WS02004412           JUNCTION      0.00  1926.92     0  00:25           0        7.07       0.245
  WS02004413           JUNCTION      0.00  1927.10     0  00:25           0        7.05       0.380
  WS02004405           JUNCTION      0.20  1127.42     0  00:17    0.000563        5.03       0.362
  WS02006109           JUNCTION      1.96  1308.01     0  00:00     0.00983        5.92       0.292
  WS02006110           JUNCTION      0.38  1235.02     0  00:16    0.000369        5.08      -0.557
  WS02006111           JUNCTION      0.04  1234.85     0  00:16     1.2e-05        5.09      -0.706
  WS02006112           JUNCTION      0.48  2307.30     0  00:00    3.72e-05        5.13       0.127
  WS02006113           JUNCTION      0.13  1235.14     0  00:16    7.73e-05        5.06      -0.741
  WS02006115           JUNCTION      0.00  1366.52     0  00:00           0        5.02       0.233
  WS02006116           JUNCTION      0.40  1126.34     0  00:17    0.000752        5.02       0.176
  WS02006230           JUNCTION     10.37  1027.23     0  00:23      0.0754        3.62       0.186
  WS02006231           JUNCTION      0.58   475.23     0  00:14     0.00173        2.06       0.117
  WS02006232           JUNCTION      0.30   453.61     0  00:59    0.000205        2.04       0.255
  WS02006234           JUNCTION      0.17   463.24     0  00:14       1e-05        2.02       0.038
  WS02006235           JUNCTION      0.85   506.98     0  00:14     0.00093        1.93       0.128
  WS02006238           JUNCTION      1.00   666.50     0  00:14    0.000375        1.75      -0.069
  WS02006240           JUNCTION      0.09   631.11     0  00:15    2.65e-06        1.75       0.097
  WS02006242           JUNCTION      1.44   584.95     0  00:15     0.00168        1.75       0.244
  WS02006243           JUNCTION      1.67   539.54     0  00:15       0.003        1.29       0.079
  WS02006245           JUNCTION      1.44   409.15     0  00:15     0.00126        1.29       0.294
  WS02006247           JUNCTION      0.00   440.43     0  00:15           0        1.29       0.136
  WS02006248           JUNCTION      2.10   460.03     0  00:15      0.0032        1.53       0.042
  WS02006249           JUNCTION      0.08  1396.93     0  00:27    2.34e-06         4.8       0.078
  WS02006239           JUNCTION      0.88   539.35     0  00:15     0.00044        1.75       0.026
  WS02006251           JUNCTION      0.85  1779.70     0  00:27    0.000793        5.15       0.018
  WS02006252           JUNCTION      0.00   782.81     0  00:27           0        1.88      -0.032
  WS02006253           JUNCTION     65.81  1779.46     0  00:27      0.0695        4.35       0.043
  WS02006256           JUNCTION      0.00   300.00     0  00:18           0        1.32       0.033
  WS02004138           JUNCTION      0.00   190.00     0  00:29           0        1.17       0.248
  WS02004139           JUNCTION      0.32   633.44     0  00:21     0.00236        1.21       2.255
  WS02004407           JUNCTION      0.10  1861.28     0  00:23    0.000159        7.29       0.122
  WS02006228           JUNCTION      1.30  1288.90     0  00:24     0.00121        5.89       0.175
  WS02006229           JUNCTION      1.05  2306.10     0  00:23      0.0011        8.92       0.137
  WS02006280           JUNCTION      0.26  2305.74     0  00:23    0.000501        8.35      -0.014
  WS02006284           JUNCTION      0.20  2305.61     0  00:23    0.000763        8.35       0.050
  WS02006287           JUNCTION      0.21  2305.75     0  00:23    0.000137        8.36       0.068
  WS02003091           JUNCTION      0.54   940.53     0  00:00     0.00132        2.86      -1.619
  WS02003203           JUNCTION      0.32  2284.29     0  00:00    0.000105        4.76      -0.334
  WS6145               JUNCTION      0.34   228.42     0  00:22    0.000622      0.0903       0.390
  WS6147               JUNCTION      0.00   227.56     0  00:22           0       0.079       0.229
  WS6150               JUNCTION      0.24   226.79     0  00:22    0.000754      0.0682       0.508
  WS6152               JUNCTION      0.58   233.54     0  00:22     0.00423      0.0569       0.743
  WS6155               JUNCTION      0.01   226.20     0  00:22    4.02e-05       0.042       0.556
  WS6156               JUNCTION      0.69   231.16     0  00:23     0.00387      0.0308       0.355
  WS6136               JUNCTION      0.19   712.33     0  00:22    5.49e-05        1.42      -0.002
  WS6140               JUNCTION      0.25   227.75     0  00:22    0.000188       0.111       0.124
  WS6142               JUNCTION      0.26   228.32     0  00:22     0.00024       0.101       0.230
  WS6325               JUNCTION      0.24   117.05     0  00:22    0.000261      0.0925       0.134
  WS6327               JUNCTION      0.21   116.90     0  00:22    0.000561      0.0814       0.141
  WS6329               JUNCTION      0.56   116.89     0  00:22      0.0022      0.0697       0.207
  WS6332               JUNCTION      0.40   116.93     0  00:21     0.00103      0.0562       0.196
  WS6158               JUNCTION      1.81   237.11     0  00:23      0.0121      0.0168      -0.717
  WS6335               JUNCTION      0.73   118.44     0  00:21     0.00385      0.0439       0.338
  WS6338               JUNCTION      0.44   119.29     0  00:21     0.00139      0.0288       0.134
  WS6340               JUNCTION      0.33   121.68     0  00:21    0.000341      0.0161       0.166
  WS6342               JUNCTION      0.66   124.92     0  00:22     0.00324     0.00666      -0.811
  WS6135               JUNCTION      0.15   712.26     0  00:22     4.5e-05        1.51       0.146
  WS6396               JUNCTION      0.24   558.80     0  00:24    2.17e-05        1.41       0.045
  WS6399               JUNCTION      0.08   558.84     0  00:24    0.000165        1.41       0.014
  WS02003082           JUNCTION      0.52   590.46     0  00:24     0.00167        2.89       0.308
  WS02003077           JUNCTION      0.60   591.20     0  00:24      0.0044        2.87       0.159
  WS02003080           JUNCTION      0.00   590.55     0  00:23           0        2.87       0.114
  WS02003083           JUNCTION      0.00   590.42     0  00:23           0        2.89       0.102
  WS02003084           JUNCTION      0.04   590.50     0  00:24    0.000323        2.89       0.107
  WS02003085           JUNCTION      0.00   590.41     0  00:24           0        2.89       0.009
  WS02003086           JUNCTION      0.49   590.39     0  00:24      0.0036        2.89       0.154
  WS02003087           JUNCTION      0.00  1088.55     0  00:00           0        2.89       0.132
  WS02003088           JUNCTION      0.55  2146.84     0  00:00     0.00168        2.92       0.125
  WS02003089           JUNCTION      0.27  1591.04     0  00:00     0.00058         2.9      -0.614
  WS02003090           JUNCTION      0.43   877.15     0  00:00    0.000854        2.87      -1.005
  WS02003081           JUNCTION      0.20   590.50     0  00:23    0.000111        2.88       0.254
  WS02003122           JUNCTION      0.00   441.45     0  00:11           0       0.965       0.261
  WS02003187           JUNCTION    799.00   976.00     0  00:27       0.966         1.9       0.198
  WS02003188           JUNCTION      0.48   403.48     0  00:38     0.00128        1.53       0.317
  WS02003190           JUNCTION      0.58   608.63     0  00:37     0.00102        2.19       0.303
  WS02003193           JUNCTION   1297.39  1561.03     0  00:27        1.55        2.74       0.224
  WS02003195           JUNCTION      0.57   457.81     0  00:11      0.0013        1.26       0.418
  WS02003196           JUNCTION      0.00   317.76     0  00:11           0        1.27       0.492
  WS02003198           JUNCTION    370.20   438.17     0  00:00       0.544        1.35       0.669
  WS02003200           JUNCTION      4.23   339.99     0  00:11       0.029       0.885      -2.333
  WS02003201           JUNCTION      0.21   614.84     0  00:27    9.38e-05        2.19      -0.712
  WS02003202           JUNCTION      0.04   708.99     0  00:00    7.34e-05        2.18       0.143
  WS02004041           JUNCTION      0.50  3086.25     0  00:31     0.00367        12.5       0.059
  WSA6400              JUNCTION      0.09   559.06     0  00:24    0.000368        1.41       0.216
  WS6400               JUNCTION      0.00   558.90     0  00:24           0        1.41       0.008
  WSF208               JUNCTION      0.00   559.02     0  00:24           0        1.41       0.088
  WSF207               JUNCTION      1.60   560.60     0  00:24      0.0117        1.64       0.025
  WSF206               JUNCTION      0.00   488.56     0  00:24           0        1.52       0.056
  WSF205               JUNCTION      0.00   488.54     0  00:24           0        1.52       0.266
  WSF204               JUNCTION      0.00   488.57     0  00:24           0        1.52       0.630
  WSF203               JUNCTION      0.00   488.54     0  00:24           0        1.51       0.238
  WSF202               JUNCTION      1.27   489.85     0  00:24     0.00932        1.51       0.138
  WSF201               JUNCTION      0.00   489.88     0  00:24           0        1.51       0.087
  WSF200               JUNCTION      0.00  2388.30     0  00:25           0        8.52       0.033
  HS02004901           JUNCTION      0.22   265.79     0  00:53    0.000159       0.616       0.432
  HS02004881           JUNCTION    251.84  1713.48     0  00:27       0.288        4.26       0.006
  HS02004876           JUNCTION    446.06  1520.06     0  00:35       0.564        3.98       0.084
  HS02004870           JUNCTION    460.13  1425.95     0  00:20       0.545        3.41       0.031
  HS02004862           JUNCTION    455.06  1314.03     0  00:20        0.74        3.14       0.039
  HS02004856           JUNCTION    343.45  1249.80     0  00:20        0.41        2.41       0.078
  HS02004852           JUNCTION      0.00  1123.26     0  00:20           0           2       0.048
  HS02004848           JUNCTION    981.90  1133.09     0  00:20        1.75        2.37       0.039
  HS02004842           JUNCTION      0.14   917.47     0  00:19    5.09e-06        1.05       1.362
  HS02004837           JUNCTION    765.01   927.09     0  00:19       0.987        1.44       0.109
  HS02004830           JUNCTION      0.15   713.42     0  00:19      0.0011        1.09       0.216
  HS02004824           JUNCTION   1076.11  1668.16     0  00:29        1.74        2.58       0.053
  HS02004817           JUNCTION      0.76  1196.83     0  00:36     0.00445        2.11       0.922
  HS02004807           JUNCTION    849.09  2045.64     0  00:27       0.993        3.03       0.219
  HS02004802           JUNCTION      0.09  1233.09     0  00:38    3.19e-05        2.48       0.240
  HS02004799           JUNCTION    674.97  1817.06     0  00:27       0.812        5.34       0.144
  HS02004792           JUNCTION   3448.18  4402.47     0  00:27        5.04        7.64       0.027
  HS02004788           JUNCTION   1040.83  1040.83     0  00:28        1.42        2.62       0.038
  HS02004785           JUNCTION      0.15   608.78     0  00:18      0.0011        1.23       0.207
  HS02004777           JUNCTION      0.40   614.10     0  00:18     0.00113        1.23       0.626
  HS02004770           JUNCTION   2851.91  2948.61     0  00:28        3.87        3.91       0.128
  HS02004480           JUNCTION      0.30  2235.57     0  00:19    0.000621        6.23       0.059
  HS02004479           JUNCTION      0.40   706.50     0  00:19    0.000998         1.5       0.112
  HS02004478           JUNCTION      0.18  2305.85     0  00:23    0.000119         8.4      -0.000
  HS02004053           JUNCTION      0.11  1045.20     0  00:23    2.48e-05        2.35      -0.035
  HS02004052           JUNCTION      0.28  1064.46     0  00:22     0.00016        2.35       0.015
  HS02004049           JUNCTION      0.50  1517.83     0  00:23     0.00194        2.93       0.005
  HS02004048           JUNCTION   1781.83  3055.03     0  00:27        1.93        3.67       0.007
  HS02004046           JUNCTION      0.95  1399.56     0  00:28     0.00588        1.77       0.071
  HS02004043           JUNCTION      1.64  1665.11     0  00:27       0.011        1.81      -0.002
  HS02004041           JUNCTION      0.17  1676.09     0  00:27    0.000571         1.8       0.001
  HS02004038           JUNCTION   1676.08  1676.08     0  00:27         1.8         1.8       0.002
  HS02004036           JUNCTION      0.00     0.00     0  00:00           0           0       0.000 ltr
  HS02004034           JUNCTION      0.00     0.00     0  00:00           0           0       0.000 ltr
  HS02004028           JUNCTION   1506.36  1506.36     0  00:26        1.57        1.57      -0.002
  HS02004027           JUNCTION      0.18   615.88     0  00:22    4.29e-05        1.23       0.002
  HS02004026           JUNCTION      0.14   616.20     0  00:22    3.16e-05        1.23       0.001
  HS02004024           JUNCTION      0.00   614.38     0  00:22           0        1.23       0.002
  HS02004022           JUNCTION    568.67  1168.82     0  00:27       0.626        1.86      -0.001
  HS02004021           JUNCTION      0.36   801.15     0  00:36     0.00169        1.69      -0.001
  HS02004019           JUNCTION      0.12  1522.54     0  00:21    3.68e-06        3.59       0.003
  HS02004018           JUNCTION    318.96  1102.12     0  00:26       0.298        2.18      -0.002
  HS02004017           JUNCTION      0.07  1593.01     0  00:25    2.03e-06        2.38       0.003
  HS02004013           JUNCTION   1408.61  2102.55     0  00:27        1.79        2.52      -0.002
  HS02004010           JUNCTION    694.56   694.56     0  00:26       0.731       0.731       0.001
  HS02003174           JUNCTION      0.00  3164.54     0  00:28           0        5.27       0.032
  HS02003171           JUNCTION    402.24  3052.99     0  00:27       0.511        4.86       0.063
  HS02003170           JUNCTION      0.00  2650.55     0  00:27           0        4.35       0.049
  HS02003168           JUNCTION      0.00  2643.52     0  00:27           0        4.35       0.030
  HS02003166           JUNCTION    996.97  2636.70     0  00:28        1.37        4.35       0.021
  HS02003162           JUNCTION      0.18  1063.13     0  00:27    9.85e-05        3.02       0.004
  HS02003160           JUNCTION    910.48  1973.50     0  00:26       0.913        3.93       0.002
  HS02003150           JUNCTION      0.19  1970.11     0  00:26    0.000275        3.93       0.002
  HS02003148           JUNCTION   1004.04  2966.31     0  00:26       0.999        4.93       0.001
  HS02003145           JUNCTION   1440.26  4148.59     0  00:25        1.56        6.42       0.003
  HS02003143           JUNCTION      0.26  2653.30     0  00:22     0.00142        5.83       0.025
  HS02003138           JUNCTION      0.39     0.39     0  00:37    0.000796    0.000796       0.000
  HS02003136           JUNCTION    578.27  2702.47     0  00:27       0.654        5.77       0.223
  HS02003125           JUNCTION      0.41  3104.39     0  00:26     0.00301        3.24       0.035
  HS02003122           JUNCTION    543.17  3102.59     0  00:27       0.665        3.22       0.006
  HS02003119           JUNCTION   1551.10  2560.80     0  00:26        1.63        2.56      -0.003
  HS02003116           JUNCTION      0.06  1009.71     0  00:26    0.000404       0.906       0.016
  HS02003111           JUNCTION      0.00   870.36     0  00:25           0       0.873       0.377
  HS02003108           JUNCTION      0.00   868.60     0  00:25           0       0.875       0.710
  HS02003100           JUNCTION      0.00   865.34     0  00:25           0       0.874       0.326
  HS02003088           JUNCTION    850.29   863.20     0  00:26       0.862       0.915       0.156
  HS02003084           JUNCTION      0.03   367.74     0  00:17    0.000235      0.0832       0.031
  HS02003079           JUNCTION      0.15   285.66     0  00:17     0.00108      0.0492       0.219
  HS02003077           JUNCTION      0.00   207.32     0  00:25           0       0.013      -0.985
  HS02003065           JUNCTION      0.29  1173.13     0  00:15    0.000296        3.65      -0.012
  HS02003056           JUNCTION      0.00  2124.60     0  00:27           0         5.1       0.015
  HS02003053           JUNCTION    571.41  1298.35     0  00:27       0.653        1.49       0.006
  HS02003042           JUNCTION      0.00   726.85     0  00:27           0        0.83      -0.032
  HS02003039           JUNCTION      0.00   726.75     0  00:27           0       0.812       0.012
  HS02003036           JUNCTION   1498.51  1498.51     0  00:27         1.7        1.71       0.032
[...]
  HS02004041HS02004043        0.08      0.08      0.21      0.01         0.01
  HS02004038HS02004041        0.04      0.04      0.08      0.01         0.01
  HS02004028HS02004027        0.01      0.23      0.01      0.25         0.01
  HS02003143HS02003065        0.73      0.73      0.83      0.01         0.01
  HS02004842HS02004848        0.70      0.70      0.81      0.01         0.01
  HS02004837HS02004842        0.72      0.72      0.81      0.01         0.01
  HS02004830HS02004837        0.72      0.72      0.75      0.01         0.01
  HS02004824HS02004830        0.75      0.75      0.78      0.01         0.01
  HS02004817HS02004824        0.78      0.78      1.08      0.01         0.01
  HS02004770HS02004777        0.77      0.77      0.78      0.01         0.01
  HS02004799HS02004480        0.88      0.88      0.91      0.92         0.01
  HS02004792HS02004799        0.84      0.84      0.91      0.01         0.01
  HS02004788HS02004792        0.74      0.74      0.84      0.01         0.01
  HS02004785HS02004788        0.74      0.75      0.74      0.91         0.58
  HS02004777HS02004785        0.75      0.75      0.78      0.01         0.01
  HS02004480HS02004478        0.83      0.88      0.83      1.33         0.83
  HS02004479HS02004480        0.88      0.88      0.90      0.01         0.01
  HS02003013HS02003010        0.44      0.44      0.50      0.33         0.33
  HS02003010HS02003007        0.42      0.43      0.44      0.49         0.42
  HS02003007HS02003004        0.44      0.44      0.56      0.29         0.29
  HS02003004HS02003001        0.01      0.56      0.01      0.90         0.01
  HS02003065HS02003056        0.82      0.82      0.88      0.01         0.01
  HS02003042HS02003053        0.41      0.41      0.81      0.01         0.01
  HS02003028HS02003021        0.34      0.34      0.39      0.01         0.01
  HS02003021HS02003018        0.41      0.41      0.42      0.19         0.19
  HS02003018HS02003017        0.43      0.43      0.43      0.10         0.07
  HS02003017HS02003013        0.43      0.43      0.44      0.38         0.36
  HS02004862HS02004870        0.72      0.72      0.73      0.28         0.27
  HS02004848HS02004852        0.70      0.70      0.71      0.03         0.01
  HS02004856HS02004862        0.69      0.69      0.72      0.01         0.01
  HS02004852HS02004856        0.71      0.71      0.73      0.02         0.01
  HS02004024HS02004022        0.01      0.01      0.28      0.01         0.01
  HS02004022HS02004021        0.28      0.28      0.39      0.01         0.01
  HS02004021HS02004019        0.39      0.39      0.43      0.32         0.32
  HS02004019HS02003162        0.01      0.43      0.01      0.54         0.01
  HS02004052HS02004053        0.27      0.27      0.27      0.29         0.27
  HS02003122HS02003125        1.02      1.02      1.02      0.25         0.29
  HS02003119HS02003122        0.95      0.95      1.03      0.01         0.01
  HS02003116HS02003119        0.82      0.82      0.93      0.01         0.01
  HS02003111HS02003116        0.01      0.01      0.83      0.01         0.01
  HS02004018HS02004019        0.33      0.33      0.43      0.01         0.01
  HS02003056HS02003136        0.83      0.83      0.93      0.01         0.01
  HS02004017HS02004018        0.31      0.31      0.33      0.01         0.01
  HS02004013HS02004017        0.12      0.12      0.31      0.14         0.12
  HS02004010HS02004013        0.01      0.01      0.12      0.01         0.01
  HS02004802HS02004478        0.84      0.84      0.88      0.29         0.01
  HS02004478WS02006287        0.76      0.76      0.86      0.01         0.01
  HS02003079HS02003084        0.05      0.05      0.07      0.01         0.01
  HS02003150HS02003148        0.01      0.01      0.06      0.01         0.01
  HS02003148HS02003145        0.06      0.06      0.22      0.02         0.01
  HS02003145HS02003143        0.22      0.22      0.70      0.21         0.20
  HS02003136WS02003203        1.00      1.00      1.13      0.01         0.01
  HS02003084HS02003088        0.08      0.08      0.11      0.01         0.01
  HS02003077HS02003079        0.02      0.02      0.05      0.01         0.01
  HS02003108HS02003111        0.26      0.26      0.47      0.04         0.04
  HS02003100HS02003108        0.14      0.14      0.26      0.01         0.01
  HS02003088HS02003100        0.12      0.12      0.14      0.07         0.06
  HS02004817HS02004807        0.86      0.86      1.08      0.01         0.01
  HS02004807HS02004802        0.86      0.86      0.87      0.45         0.44
  HS02003053HS02003056        0.81      0.81      0.88      0.01         0.01
  HS02003039HS02003042        0.46      0.46      0.48      0.33         0.03
  HS02003036HS02003039        0.28      0.28      0.33      0.05         0.05
  YS02001759YS02001757        0.25      0.25      0.27      0.24         0.20
  YS02001762YS02001759        0.25      0.25      0.25      0.20         0.17
  YS02001765YS02001762        0.24      0.24      0.25      0.09         0.08
  YS02001770YS02001767        0.24      0.26      0.24      0.78         0.24
  YS02001774YS02001770        0.25      0.25      0.28      0.01         0.01
  YS02001779YS02001774        0.22      0.22      0.28      0.01         0.01
  YS02001767YS02001765        0.24      0.24      0.24      0.27         0.21
  YS02006561YS02001783        0.58      0.58      0.75      0.01         0.01
  YS02001783YS02001784        0.73      0.75      0.73      0.82         0.73
  YS02001784YS02001785        0.65      0.73      0.65      0.92         0.65
  YS02001790YS02001791        0.01      0.01      0.01      0.72         0.01
  YS02001910YS02001907        0.77      0.77      0.86      0.15         0.15
  YS02001786YS02001788        0.01      0.65      0.01      0.88         0.01
  YS02001915YS02001910        0.71      0.71      0.77      0.01         0.02
  YS02001918YS02001915        0.64      0.64      0.71      0.01         0.01
  YS02001923YS02001920        0.56      0.56      0.65      0.01         0.01
  YS02001926YS02001923        0.27      0.27      0.29      0.10         0.01
  YS02001929YS02001926        0.17      0.17      0.29      0.01         0.01
  YS02001932YS02001929        0.14      0.14      0.17      0.01         0.01
  YS02001935YS02001932        0.01      0.01      0.11      0.01         0.01
  YS02001920YS02001918        0.64      0.64      0.65      0.01         0.01
  YS02003290YS02003287        0.96      0.96      1.06      0.01         0.01
  YS02003294YS02003290        0.97      0.97      1.08      0.01         0.01
  YS02003297YS02003294        1.06      1.07      1.07      0.13         0.13
  YS02003275YS02003272        0.90      0.93      0.90      1.02         0.90
  YS02003300YS02003297        1.00      1.00      1.05      0.01         0.01
  YS02003303YS02003300        0.96      0.96      1.03      0.01         0.01
  YS02005550YS02005551        0.01      0.10      0.01      0.15         0.01
  YS02005568YS02005569        0.01      0.21      0.01      0.31         0.01
  YS02005582YS02005583        0.39      0.66      0.39      0.75         0.39
  YS02003272YS02003269        0.01      0.92      0.01      1.02         0.01
  YS02003278YS02003275        0.95      1.07      0.95      1.26         0.95
  YS02003281YS02003278        1.00      1.00      1.06      0.95         0.94
  YS02003284YS02003281        1.00      1.00      1.07      0.57         0.41
  YS02003287YS02003284        1.04      1.04      1.09      0.01         0.01
  YS02003306YS02003303        0.94      0.94      1.00      0.61         0.61
  YS02003309YS02003306        0.91      0.91      0.94      0.01         0.01
  YS02005600YS02005375        0.28      0.28      0.29      0.29         0.28
  YS02005384YS02005593        0.01      0.95      0.01      0.99         0.01
  YS02005595YS02005596        0.39      0.40      0.39      0.41         0.39
  YS02005609YS02005610        0.01      0.01      0.01      0.06         0.01
  YS02005612YS02005613        0.19      0.19      0.90      0.39         0.01
  YS02005549YS02005547        0.01      0.02      0.01      0.04         0.01
  YS02005553YS02005554        0.01      0.15      0.01      0.29         0.01
  YS02005556YS02005557        0.01      0.10      0.01      0.31         0.01
  YS02005562YS02005563        0.01      0.01      0.01      0.28         0.01
  YS02005565YS02005566        0.01      0.01      0.01      0.02         0.01
  YS02005571YS02005572        0.10      0.30      0.10      0.49         0.10
  YS02005572YS02005574        0.01      0.10      0.01      0.15         0.01
  YS02005576YS02005577        0.01      0.14      0.01      0.21         0.01
  YS02005577YS02005578        0.01      0.01      0.01      0.07         0.01
  YS02005579YS02005580        0.31      0.53      0.31      0.68         0.31
  YS02005580YS02005581        0.30      0.31      0.30      0.32         0.30
  YS02005583YS02005584        0.39      0.39      0.41      0.41         0.39
  YS02006553YS02006556        0.81      0.81      0.87      0.01         0.01
  YS02006556YS02006558        0.84      0.84      0.88      0.01         0.01
  YSB6556YSB1171              0.93      0.93      1.13      0.01         0.01
  YSB1202YSB1205              1.17      1.17      1.24      0.01         0.01
  YSB1205YSB1209              1.24      1.24      1.25      0.59         0.54
  YSB1209YSB1212              1.20      1.25      1.20      1.51         1.20
  YSB1212YSB1215              1.20      1.20      1.24      0.38         0.36
  YSB1215YSB1218              1.24      1.24      1.26      0.42         0.41
  YSB1218YSB1221              1.19      1.19      1.29      1.04         1.04
  YSB1221YSB1224              1.29      1.29      1.32      1.18         1.18
  YSB1224YSB1105              0.92      1.44      0.92      1.70         0.92
  YSB1189YSB1186              0.72      0.72      0.78      0.24         0.24
  YS02001907YS02006553        0.92      0.92      0.95      0.01         0.01
  YS02006562YS02006558        0.75      0.75      0.88      0.01         0.01
  YS02006558YS02006561        0.68      0.81      0.68      0.90         0.68
  YS6184YS6187                0.22      0.22      0.23      0.15         0.16
  YS6360YS6363                0.18      0.23      0.18      0.82         0.18
  YS6354YS6360                0.30      0.31      0.31      0.31         0.28
  YS6351YS6354                0.31      0.33      0.31      0.54         0.30
  YS6350YS6351                0.33      0.36      0.33      0.83         0.33
  YS6348YS6350                0.34      0.34      0.36      0.30         0.29
  YS6344YS6348                0.34      0.34      0.41      0.01         0.01
  YS6363YS6132                0.18      0.18      0.36      0.01         0.01
  YS6137YS6132                0.27      0.27      0.44      0.01         0.02
  YS6189YS6137                0.27      0.27      0.29      0.98         0.01
  YS6187YS6189                0.21      0.21      0.23      0.39         0.01
  YS6179YS6184                0.20      0.20      0.22      0.01         0.01
  YS6176YS6179                0.15      0.15      0.20      0.01         0.01
  YS6171YS6176                0.17      0.17      0.20      0.06         0.07
  YS6168YS6171                0.16      0.16      0.17      0.13         0.13
  YS6164YS6168                0.12      0.13      0.16      0.01         0.01
  YS6162YS6164                0.15      0.16      0.17      0.01         0.01
  YS6132YS6404                0.02      0.23      0.02      0.39         0.01
  YSB1106YSB1105              0.12      0.25      0.12      0.30         0.12
  YSB1109YSB1106              0.25      0.31      0.25      0.45         0.25
  YSB1112YSB1109              0.31      0.32      0.31      0.34         0.31
  YSB1115YSB1112              0.30      0.30      0.32      0.10         0.11
  YSB1118YSB1115              0.33      0.33      0.33      0.35         0.32
  YSB1121YSB1118              0.33      0.35      0.33      0.45         0.33
  YSB1124YSB1121              0.32      0.32      0.35      0.01         0.01
  YSB1105YSB1103              0.20      0.20      0.24      0.24         0.20
  YS02001745YS02001748        0.01      0.01      0.03      0.01         0.01
  YS02001748YS02001751        0.05      0.05      0.10      0.01         0.01
  YS02001751YS02001754        0.09      0.10      0.16      0.01         0.01
  YS02001754YS02001757        0.17      0.17      0.27      0.01         0.01
  YS02001882YS02001884        0.71      0.71      0.72      0.01         0.01
  YS02001884YS02001887        0.74      0.74      0.74      0.01         0.01
  YS02001890YS02001895        0.71      0.71      0.77      0.01         0.01
  YS02001895YS02001898        0.70      0.70      0.71      0.01         0.01
  YS02001898YS02001901        0.71      0.71      0.74      0.01         0.01
  YS02001901YS02001904        0.73      0.73      0.74      0.01         0.01
  YS02001904YS02001907        0.73      0.73      0.87      0.01         0.01
  YS02001887YS02001890        0.75      0.75      0.76      0.25         0.01
  YS02004309YS02004307        0.24      0.89      0.24      0.89         0.24
  YS02004319YS02004316        0.43      0.43      0.45      0.01         0.01
  YS02005670YS02005671        0.01      0.01      0.01      0.02         0.01
  YS02005673YS02005674        0.01      0.02      0.01      0.04         0.01
  YS02005376YS02005378        1.08      1.08      1.52      0.01         0.01
  YS02005378YS02005381        1.23      1.23      1.52      0.20         0.01
  YS02005381YS02005384        0.95      0.95      1.23      1.36         0.01
  YS02005598YS02005374        0.30      0.30      0.31      0.31         0.30
  YS02005602YS02005603        0.25      0.60      0.25      0.74         0.25
  YS02005603YS02005607        0.25      0.25      0.27      0.27         0.25
  YS02005618YS02005619        0.01      0.03      0.01      0.05         0.01
  YS02005621YS02005622        0.01      0.04      0.01      0.10         0.01
  YS02005624YS02005625        0.01      0.01      0.29      0.06         0.01
  YS02005630YS02005631        0.01      0.08      0.01      0.13         0.01
  YS02005633YS02005634        0.01      0.08      0.01      0.10         0.01
  YS02005636YS02005637        0.01      0.12      0.01      0.16         0.01
  YS02005639YS02005640        0.01      0.09      0.01      0.12         0.01
  YS02005642YS02005643        0.03      0.03      0.05      0.05         0.03
  YS02005627YS02005628        0.01      0.08      0.01      0.31         0.01
  YS02005644YS02005645        0.01      0.20      0.01      0.23         0.01
  YS02005650YS02005651        0.01      0.19      0.01      0.28         0.01
  YS02005653YS02005654        0.16      0.16      0.17      0.17         0.16
  YS02005654YS02005655        0.01      0.17      0.01      0.27         0.01
  YS02005658YS02005659        0.01      0.11      0.01      0.15         0.01
  YS02005661YS02005662        0.01      0.16      0.01      0.29         0.01
  YS02005664YS02005665        0.01      0.17      0.01      0.56         0.01
  YS02005667YS02005668        0.01      0.01      0.65      0.20         0.01
  YS02005647YS02005648        0.01      0.36      0.01      0.50         0.01
  YS02004312YS02004309        0.76      0.76      0.89      0.01         0.01
  YS02004314YS02004312        0.46      0.46      0.76      0.01         0.01
  YS02004316YS02004314        0.45      0.45      0.46      0.41         0.41
  YS02004320YS02004319        0.01      0.01      0.36      0.01         0.01
  YS6404YS6401                0.01      0.02      0.01      0.79         0.01
  YSB1132YSB1135              0.72      0.72      0.75      0.01         0.01
  YSB1135YSB1138              0.75      0.75      0.77      0.01         0.01
  YSB1138YSB1141              0.77      0.77      0.82      0.51         0.51
  YSB1141YSB1145              0.81      0.81      0.82      0.50         0.47
  YSB1148YSB1151              0.86      0.86      0.95      0.01         0.01
  YSB1151YSB1154              0.92      0.92      0.98      0.01         0.01
  YSB1154YSB6556              0.93      0.93      0.98      0.53         0.01
  YSB1128YSB1132              0.70      0.70      0.72      0.01         0.01
  YSB1145YSB1148              0.82      0.82      0.86      0.01         0.01
  YSB1198YSB1195              0.36      0.36      0.69      0.01         0.01
  YSB1195YSB1192              0.69      0.69      0.70      0.01         0.01
  YSB1192YSB1189              0.70      0.70      0.72      0.01         0.01
  YSB1186YSB1183              0.75      0.75      0.81      0.01         0.01
  YSB1183YSB1180              0.81      0.81      0.84      0.28         0.29
  YSB1180YSB1177              0.84      0.84      0.96      0.01         0.01
  YSB1177YSB1174              0.96      0.96      1.01      0.29         0.30
  YSB1174YSB1171              0.95      0.95      1.07      0.24         0.24
  YSB1171HS02004479           0.86      0.86      0.98      0.01         0.01
  HS02003001HS02003166        0.01      0.01      0.11      0.01         0.01
  YS02004307HS02004052        0.01      0.01      0.27      0.01         0.01
  HS02004881HS02006253        0.77      0.77      1.06      0.01         0.01
  WS0200404049WS6136          0.25      0.25      0.36      0.01         0.01
  HS02003125WS02003215        1.02      1.02      1.10      0.01         0.01
  YS02001793JiankangQianchi        0.01      0.01      2.03      0.01         0.01
  YS02001757CaochengTiaoxuchi        0.26      0.27      0.66      0.17         0.16
  WS02004041WS6409            0.82      0.82      0.87      0.87         0.82
  WSF200WS02003060            0.30      0.30      0.60      0.01         0.01
  HS02004053WS02004407        0.27      0.27      0.86      0.01         0.01
  HS02003036HS02003028        0.28      0.28      0.38      0.01         0.01
  
  
  ***************
  Pumping Summary
  ***************
  
  ---------------------------------------------------------------------------------------------------------
                                                  Min       Avg       Max     Total     Power    % Time Off
                        Percent   Number of      Flow      Flow      Flow    Volume     Usage    Pump Curve
  Pump                 Utilized   Start-Ups       LPS       LPS       LPS  10^6 ltr     Kw-hr    Low   High
  ---------------------------------------------------------------------------------------------------------
  CaochengSewagePump1     59.85           1      0.00    200.00    200.00     0.879      6.93    0.0    0.0
  CaochengSewagePump2     44.68           1      0.00    200.00    200.00     0.656      5.31    0.0    0.0
  CaochengRainPump1       41.74           1      0.00    683.00    683.00     2.092      3.63    0.0   29.6
  CaochengRainPump2       37.14           1      0.00    683.00    683.00     1.862      3.12    0.0   33.3
  JiankangSewagePump      59.86           1      0.00    300.00    300.00     1.318     21.55    0.0    0.0
  JiankangRainPump1       34.62           3      0.00   1000.00   1000.00     2.541     17.69    0.0    0.0
  JiankangRainPump2        0.00           0      0.00      0.00      0.00     0.000      0.00    0.0    0.0
  XierchiSewagePump1      91.82           1      0.00     95.00     95.00     0.640      3.96    0.0    0.0
  XierchiSewagePump2      76.25           1      0.00     95.00     95.00     0.532      3.11    0.0    0.0
  XierchiSewagePump3       0.00           0      0.00      0.00      0.00     0.000      0.00    0.0    0.0
  XierchiSewagePump4       0.00           0      0.00      0.00      0.00     0.000      0.00    0.0    0.0
  

  Analysis begun on:  Fri Jul 29 20:49:24 2022
  Analysis ended on:  Fri Jul 29 21:20:26 2022
  Total elapsed time: 00:31:02