
  EPA STORM WATER MANAGEMENT MODEL - VERSION 5.1 (Build 5.3.0.dev0)
  --------------------------------------------------------------

  WARNING 04: minimum elevation drop used for Conduit WS02004404WS02004405
  WARNING 03: negative offset ignored for Link YS02001904YS02001907
  
  *********************************************************
  NOTE: The summary statistics displayed in this report are
  based on results found at every computational time step,  
  not just on results from each reporting time step.
  *********************************************************
  
  ****************
  Analysis Options
  ****************
  Flow Units ............... LPS
  Process Models:
    Rainfall/Runoff ........ YES
    RDII ................... NO
    Snowmelt ............... NO
    Groundwater ............ NO
    Flow Routing ........... YES
    Ponding Allowed ........ NO
    Water Quality .......... NO
  Infiltration Method ...... HORTON
  Flow Routing Method ...... DYNWAVE
  Surcharge Method ......... EXTRAN
  Starting Date ............ 03/31/2017 00:00:00
  Ending Date .............. 03/31/2017 03:00:00
  Antecedent Dry Days ...... 8.0
  Report Time Step ......... 00:02:00
  Wet Time Step ............ 00:01:00
  Dry Time Step ............ 00:01:00
  Routing Time Step ........ 30.00 sec
  Variable Time Step ....... YES
  Maximum Trials ........... 8
  Number of Threads ........ 6
  Head Tolerance ........... 0.001500 m
  
  
  **************************        Volume         Depth
  Runoff Quantity Continuity     hectare-m            mm
  **************************     ---------       -------
  Total Precipitation ......         9.421        79.950
  Evaporation Loss .........         0.000         0.000
  Infiltration Loss ........         0.322         2.733
  Surface Runoff ...........         8.779        74.497
  Final Storage ............         0.326         2.765
  Continuity Error (%) .....        -0.057
  
  
  **************************        Volume        Volume
  Flow Routing Continuity        hectare-m      10^6 ltr
  **************************     ---------     ---------
  Dry Weather Inflow .......         0.171         1.709
  Wet Weather Inflow .......         8.777        87.771
  Groundwater Inflow .......         0.000         0.000
  RDII Inflow ..............         0.000         0.000
  External Inflow ..........         0.037         0.372
  External Outflow .........         4.556        45.564
  Flooding Loss ............         4.399        43.995
  Evaporation Loss .........         0.000         0.000
  Exfiltration Loss ........         0.000         0.000
  Initial Stored Volume ....         0.303         3.031
  Final Stored Volume ......         0.366         3.660
  Continuity Error (%) .....        -0.363
  
  
  *************************
  Highest Continuity Errors
  *************************
  Node YS02001884 (8.36%)
  Node YS02004320 (5.25%)
  Node YS6162 (2.76%)
  Node WS02003059 (2.60%)
  Node WS02001211 (2.56%)
  
  
  ***************************
  Time-Step Critical Elements
  ***************************
  Link YS02005655YS02005657 (39.59%)
  Link WS02004041WS6409 (28.85%)
  Link WS02006252WS02006251 (12.44%)
  Link WSF207WS02004410 (1.74%)
  Link WS02006238WS02006235 (1.23%)
  
  
  ********************************
  Highest Flow Instability Indexes
  ********************************
  Link WS02003201WS02003202 (69)
  Link WS02003215WS02003116 (61)
  Link WS02003200WS02003201 (60)
  Link WS02006238WS02006235 (59)
  Link WS02003115WS02003215 (58)
  
  
  *************************
  Routing Time Step Summary
  *************************
  Minimum Time Step           :     0.50 sec
  Average Time Step           :     1.01 sec
  Maximum Time Step           :    30.00 sec
  Percent in Steady State     :    -0.00
  Average Iterations per Step :     6.05
  Percent Not Converging      :    41.62
  
  
  ***************************
  Subcatchment Runoff Summary
  ***************************
  
  ------------------------------------------------------------------------------------------------------------------------------
                            Total      Total      Total      Total     Imperv       Perv      Total       Total     Peak  Runoff
                           Precip      Runon       Evap      Infil     Runoff     Runoff     Runoff      Runoff   Runoff   Coeff
  Subcatchment                 mm         mm         mm         mm         mm         mm         mm    10^6 ltr      LPS
  ------------------------------------------------------------------------------------------------------------------------------
  sub0                      79.95       0.00       0.00       0.74      73.05       4.82      77.86        0.06    59.53   0.974
  sub1                      79.95       0.00       0.00       1.17      69.50       7.38      76.88        0.51   400.14   0.962
  sub2                      79.95       0.00       0.00       3.93      49.04      22.36      71.40        0.67   404.33   0.893
  sub3                      79.95       0.00       0.00       3.93      48.74      21.16      69.90        1.57   868.72   0.874
  sub4                      79.95       0.00       0.00       1.17      68.30       7.15      75.45        1.57   954.83   0.944
  sub5                      79.95       0.00       0.00       0.74      72.62       4.75      77.37        0.88   689.38   0.968
  sub6                      79.95       0.00       0.00       0.74      72.35       4.72      77.06        1.99  1461.00   0.964
  sub7                      79.95       0.00       0.00       0.96      71.31       6.13      77.44        0.26   226.40   0.969
  sub8                      79.95       0.00       0.00       0.96      71.23       6.11      77.34        0.49   412.72   0.967
  sub9                      79.95       0.00       0.00       0.96      71.21       6.10      77.32        0.37   307.91   0.967
  sub10                     79.95       0.00       0.00       0.85      71.90       5.42      77.32        0.85   681.19   0.967
  sub11                     79.95       0.00       0.00       0.85      72.04       5.44      77.49        0.90   762.34   0.969
  sub12                     79.95       0.00       0.00       1.38      68.28       8.84      77.13        0.67   615.76   0.965
  sub13                     79.95       0.00       0.00       3.61      51.67      21.94      73.61        0.87   637.82   0.921
  sub14                     79.95       0.00       0.00       0.96      71.20       6.10      77.30        0.74   604.88   0.967
  sub15                     79.95       0.00       0.00       3.19      54.74      19.37      74.11        1.27   927.33   0.927
  sub16                     79.95       0.00       0.00       3.50      52.56      21.72      74.28        0.78   625.28   0.929
  sub17                     79.95       0.00       0.00       3.40      53.32      21.03      74.36        0.64   507.12   0.930
  sub18                     79.95       0.00       0.00       0.96      71.36       6.14      77.50        0.62   548.72   0.969
  sub19                     79.95       0.00       0.00       3.29      54.09      20.34      74.43        0.24   186.03   0.931
  sub20                     79.95       0.00       0.00       0.96      71.31       6.12      77.43        0.54   467.20   0.968
  sub21                     79.95       0.00       0.00       1.27      69.03       8.16      77.19        0.39   351.15   0.965
  sub22                     79.95       0.00       0.00       4.57      44.65      27.18      71.83        4.54  3069.57   0.898
  sub23                     79.95       0.00       0.00       3.93      49.36      23.88      73.24        3.49  2546.42   0.916
  sub24                     79.95       0.00       0.00       1.49      67.44       9.48      76.92        2.76  2433.39   0.962
  sub25                     79.95       0.00       0.00       0.74      73.07       4.82      77.89        1.01   971.06   0.974
  sub26                     79.95       0.00       0.00       2.55      59.74      16.33      76.07        1.08  1050.64   0.951
  sub27                     79.95       0.00       0.00       0.96      71.17       6.09      77.26        1.12   907.47   0.966
  sub28                     79.95       0.00       0.00       0.85      71.93       5.43      77.36        1.21   979.12   0.968
  sub29                     79.95       0.00       0.00       0.85      71.49       5.36      76.85        1.24   889.52   0.961
  sub30                     79.95       0.00       0.00       0.85      72.21       5.48      77.69        1.75  1608.11   0.972
  sub31                     79.95       0.00       0.00       1.81      65.18      11.55      76.73        1.63  1512.31   0.960
  sub32                     79.95       0.00       0.00       0.85      72.11       5.46      77.57        1.55  1347.70   0.970
  sub33                     79.95       0.00       0.00       1.38      68.29       8.85      77.15        1.41  1299.14   0.965
  sub34                     79.95       0.00       0.00       5.31      39.29      32.84      72.13        1.61  1254.90   0.902
  sub35                     79.95       0.00       0.00       0.85      72.36       5.54      77.89        0.27   288.44   0.974
  sub36                     79.95       0.00       0.00       2.34      61.29      14.94      76.23        0.66   626.87   0.954
  sub37                     79.95       0.00       0.00       4.14      47.95      26.20      74.15        0.57   511.27   0.927
  sub38                     79.95       0.00       0.00       3.72      51.11      23.69      74.79        1.42  1351.94   0.936
  sub39                     79.95       0.00       0.00       0.85      72.31       5.51      77.82        0.83   820.73   0.973
  sub40                     79.95       0.00       0.00       0.85      72.31       5.52      77.83        0.91   905.36   0.973
  sub41                     79.95       0.00       0.00       1.70      65.99      10.91      76.90        1.48  1402.09   0.962
  sub42                     79.95       0.00       0.00       0.96      71.51       6.19      77.71        0.78   766.05   0.972
  sub43                     79.95       0.00       0.00       4.04      48.67      25.03      73.70        0.60   485.11   0.922
  sub44                     79.95       0.00       0.00       0.74      72.74       4.76      77.51        0.88   716.07   0.969
  sub45                     79.95       0.00       0.00       1.81      65.01      11.38      76.39        1.40  1161.84   0.955
  sub46                     79.95       0.00       0.00       6.69      29.08      40.69      69.77        0.49   327.49   0.873
  sub47                     79.95       0.00       0.00       0.85      72.12       5.46      77.58        0.59   520.31   0.970
  sub48                     79.95       0.00       0.00       0.96      71.32       6.13      77.44        0.59   513.71   0.969
  sub49                     79.95       0.00       0.00       0.85      72.01       5.44      77.45        0.71   590.44   0.969
  sub50                     79.95       0.00       0.00       0.85      72.03       5.44      77.47        0.54   456.36   0.969
  sub51                     79.95       0.00       0.00       0.85      72.16       5.47      77.63        0.37   327.42   0.971
  sub52                     79.95       0.00       0.00       0.74      72.77       4.77      77.53        0.84   695.13   0.970
  sub53                     79.95       0.00       0.00       0.85      72.11       5.46      77.57        0.78   684.25   0.970
  sub54                     79.95       0.00       0.00       0.74      72.60       4.74      77.34        0.46   360.92   0.967
  sub55                     79.95       0.00       0.00       0.85      71.92       5.42      77.34        0.62   495.46   0.967
  sub56                     79.95       0.00       0.00       2.02      63.01      12.34      75.34        1.07   744.48   0.942
  sub57                     79.95       0.00       0.00       3.29      53.92      19.85      73.76        0.48   336.54   0.923
  sub58                     79.95       0.00       0.00       7.75      21.20      42.58      63.77        2.36  1105.83   0.798
  sub59                     79.95       0.00       0.00       8.18      18.04      40.76      58.81        1.35   541.35   0.736
  sub60                     79.95       0.00       0.00       1.27      68.94       8.12      77.06        1.01   865.06   0.964
  sub61                     79.95       0.00       0.00       1.81      65.06      11.42      76.48        1.40  1199.48   0.957
  sub62                     79.95       0.00       0.00       0.85      71.85       5.41      77.27        2.12  1671.17   0.966
  sub67                     79.95       0.00       0.00       0.85      71.92       5.42      77.34        1.44  1156.07   0.967
  sub68                     79.95       0.00       0.00       1.49      67.29       9.39      76.68        2.11  1713.15   0.959
  sub71                     79.95       0.00       0.00       0.85      71.55       5.37      76.92        2.01  1465.66   0.962
  sub72                     79.95       0.00       0.00       0.74      71.88       4.68      76.56        1.05   702.64   0.958
  sub73                     79.95       0.00       0.00       2.23      62.08      14.27      76.35        0.07    70.94   0.955
  sub74                     79.95       0.00       0.00       3.40      53.43      21.49      74.92        0.12   109.01   0.937
  sub75                     79.95       0.00       0.00       3.19      55.01      20.26      75.27        0.17   154.79   0.941
  sub76                     79.95       0.00       0.00       1.91      64.41      12.24      76.65        0.19   175.49   0.959
  sub77                     79.95       0.00       0.00       1.81      65.22      11.60      76.81        0.12   116.52   0.961
  sub78                     79.95       0.00       0.00       1.38      68.28       8.84      77.12        0.21   193.18   0.965
  sub79                     79.95       0.00       0.00       2.55      59.64      16.06      75.70        0.20   169.95   0.947
  sub80                     79.95       0.00       0.00       3.50      52.63      22.08      74.72        0.22   193.85   0.935
  sub81                     79.95       0.00       0.00       3.93      49.47      24.49      73.96        0.23   188.17   0.925
  sub82                     79.95       0.00       0.00       3.93      49.49      24.61      74.10        0.22   191.00   0.927
  sub83                     79.95       0.00       0.00       4.04      48.72      25.37      74.08        0.25   217.94   0.927
  sub84                     79.95       0.00       0.00       3.72      51.02      23.10      74.11        0.40   328.66   0.927
  sub85                     79.95       0.00       0.00       2.55      59.62      16.04      75.66        0.34   288.82   0.946
  sub86                     79.95       0.00       0.00       2.76      58.07      17.37      75.44        0.36   314.90   0.944
  sub87                     79.95       0.00       0.00       3.72      51.05      23.30      74.35        0.22   191.72   0.930
  sub88                     79.95       0.00       0.00       3.61      51.84      22.70      74.54        0.23   198.66   0.932
  sub89                     79.95       0.00       0.00       3.29      54.22      20.90      75.12        0.20   184.25   0.940
  sub90                     79.95       0.00       0.00       2.87      57.35      18.20      75.55        0.19   170.71   0.945
  sub91                     79.95       0.00       0.00       2.87      57.39      18.35      75.74        0.14   133.29   0.947
  sub92                     79.95       0.00       0.00       3.29      54.26      21.12      75.38        0.11   113.61   0.943
  sub93                     79.95       0.00       0.00       3.29      54.26      21.14      75.40        0.14   138.50   0.943
  sub94                     79.95       0.00       0.00       3.29      54.24      21.01      75.25        0.16   156.15   0.941
  sub95                     79.95       0.00       0.00       3.08      55.82      19.72      75.54        0.11   112.06   0.945
  sub96                     79.95       0.00       0.00       2.34      61.35      15.11      76.46        0.14   149.60   0.956
  sub97                     79.95       0.00       0.00       6.48      30.69      41.48      72.17        0.17   165.09   0.903
  sub98                     79.95       0.00       0.00       7.65      22.02      47.42      69.44        0.23   161.52   0.869
  sub99                     79.95       0.00       0.00       8.39      16.51      50.19      66.70        0.23   127.72   0.834
  sub100                    79.95       0.00       0.00       8.39      16.51      48.53      65.04        0.23   109.32   0.814
  sub101                    79.95       0.00       0.00       8.39      16.51      48.35      64.86        0.22   103.86   0.811
  sub102                    79.95       0.00       0.00       8.07      18.85      45.22      64.07        0.19    89.29   0.801
  sub103                    79.95       0.00       0.00       8.28      17.28      45.59      62.88        0.30   130.74   0.786
  sub104                    79.95       0.00       0.00       8.28      17.28      45.20      62.48        0.33   141.43   0.781
  sub105                    79.95       0.00       0.00       8.60      14.93      46.89      61.82        0.35   144.73   0.773
  sub106                    79.95       0.00       0.00       8.39      16.50      47.29      63.79        0.33   146.78   0.798
  sub107                    79.95       0.00       0.00       8.60      14.94      49.77      64.71        0.46   214.88   0.809
  sub108                    79.95       0.00       0.00       8.71      14.16      52.30      66.45        0.62   336.21   0.831
  sub109                    79.95       0.00       0.00       6.80      28.30      41.46      69.76        0.99   672.53   0.872
  sub110                    79.95       0.00       0.00       1.91      64.35      12.15      76.50        1.61  1435.83   0.957
  sub111                    79.95       0.00       0.00       2.76      58.09      17.41      75.50        0.65   569.00   0.944
  sub112                    79.95       0.00       0.00       2.23      62.02      14.16      76.18        0.60   542.46   0.953
  sub113                    79.95       0.00       0.00       1.49      67.50       9.52      77.02        0.53   487.00   0.963
  sub114                    79.95       0.00       0.00       1.38      68.29       8.85      77.14        0.51   469.32   0.965
  sub115                    79.95       0.00       0.00       1.27      69.06       8.17      77.24        0.57   518.96   0.966
  sub116                    79.95       0.00       0.00       4.25      47.09      26.18      73.27        0.14   106.36   0.917
  sub117                    79.95       0.00       0.00       4.35      46.33      27.00      73.34        0.34   270.92   0.917
  
  
  ******************
  Node Depth Summary
  ******************
  
  ---------------------------------------------------------------------------------
                                 Average  Maximum  Maximum  Time of Max    Reported
                                   Depth    Depth      HGL   Occurrence   Max Depth
  Node                 Type       Meters   Meters   Meters  days hr:min      Meters
  ---------------------------------------------------------------------------------
  WS02001211           JUNCTION     0.98     4.10     8.94     0  00:25        1.77
  WS02001212           JUNCTION     0.74     3.37     8.44     0  00:26        1.54
  WS02001213           JUNCTION     0.99     3.65     8.41     0  00:26        1.84
  WS02003069           JUNCTION     0.93     2.56     7.14     0  00:24        1.68
  WS02003072           JUNCTION     1.00     1.62     5.99     0  00:26        1.57
  WS02003073           JUNCTION     1.22     1.70     5.77     0  00:31        1.70
  WS02003076           JUNCTION     0.95     1.35     5.58     0  00:30        1.35
  WS02003060           JUNCTION     0.83     2.01     6.94     0  00:26        1.67
  WS02003066           JUNCTION     0.52     1.18     6.73     0  00:30        1.15
  WS02003059           JUNCTION     1.06     2.81     7.49     0  00:26        1.91
  WS02003115           JUNCTION     1.67     2.76     9.62     0  00:12        2.73
  WS02003116           JUNCTION     1.81     3.03     9.74     0  00:12        2.94
  WS02003118           JUNCTION     1.80     2.90     9.52     0  00:12        2.90
  WS02003215           JUNCTION     1.69     2.80     9.66     0  00:16        2.80
  WS02003110           JUNCTION     1.34     2.54     9.79     0  00:13        2.39
  WS02003111           JUNCTION     1.44     2.35     9.44     0  00:13        2.35
  WS02005155           JUNCTION     1.32     2.66     9.97     0  00:14        2.53
  WS02005154           JUNCTION     1.12     2.67    10.30     0  00:14        2.48
  WS02005193           JUNCTION     1.39     3.22    11.04     0  00:21        3.03
  WS02005196           JUNCTION     1.36     3.31    11.16     0  00:21        3.00
  WS02003067           JUNCTION     0.87     1.49     6.81     0  00:30        1.47
  WS02004401           JUNCTION     1.44     2.66     8.66     0  00:16        2.44
  WS02004402           JUNCTION     1.45     2.74     8.70     0  00:16        2.46
  WS02004403           JUNCTION     1.44     2.96     8.89     0  00:19        2.45
  WS02004404           JUNCTION     1.49     3.05     8.90     0  00:19        2.51
  WS02004406           JUNCTION     1.45     2.84     8.67     0  00:19        2.48
  WS02004409           JUNCTION     1.20     2.67     8.44     0  00:19        2.27
  WS02004410           JUNCTION     1.12     2.47     8.19     0  00:19        2.07
  WS02004411           JUNCTION     1.04     2.16     7.84     0  00:19        1.87
  WS02004412           JUNCTION     0.95     1.99     7.63     0  00:19        1.63
  WS02004413           JUNCTION     1.00     2.67     8.14     0  00:18        1.52
  WS02004405           JUNCTION     1.47     2.99     8.84     0  00:19        2.50
  WS02006109           JUNCTION     1.79     2.64     9.26     0  00:17        2.64
  WS02006110           JUNCTION     1.64     2.76     9.34     0  00:17        2.48
  WS02006111           JUNCTION     1.07     2.68     9.39     0  00:17        1.99
  WS02006112           JUNCTION     1.71     2.68     8.56     0  00:00        2.68
  WS02006113           JUNCTION     1.14     2.73     9.62     0  00:17        1.99
  WS02006115           JUNCTION     1.40     3.26     9.40     0  00:16        2.38
  WS02006116           JUNCTION     1.45     3.35     9.39     0  00:16        2.45
  WS02006230           JUNCTION     1.82     2.65     9.39     0  00:15        2.65
  WS02006231           JUNCTION     1.42     2.24     9.36     0  00:15        2.19
  WS02006232           JUNCTION     1.47     2.18     9.22     0  00:15        2.18
  WS02006234           JUNCTION     1.31     1.96     9.12     0  00:15        1.96
  WS02006235           JUNCTION     1.29     2.00     9.16     0  00:15        1.93
  WS02006238           JUNCTION     1.30     2.15     9.29     0  00:15        1.93
  WS02006240           JUNCTION     1.11     2.10     9.39     0  00:16        2.10
  WS02006242           JUNCTION     1.10     1.55     8.82     0  00:16        1.55
  WS02006243           JUNCTION     0.95     1.48     8.90     0  00:16        1.36
  WS02006245           JUNCTION     0.89     1.56     9.04     0  00:16        1.26
  WS02006247           JUNCTION     0.87     1.47     8.97     0  00:16        1.22
  WS02006248           JUNCTION     0.79     1.10     8.69     0  00:16        1.10
  WS02006249           JUNCTION     0.79     1.09     8.69     0  00:16        1.09
  WS02006239           JUNCTION     1.21     2.03     9.24     0  00:15        1.78
  WS02006251           JUNCTION     1.25     2.21     9.88     0  00:21        2.18
  WS02006252           JUNCTION     0.84     1.50     9.74     0  00:17        1.50
  WS02006253           JUNCTION     1.56     3.52    11.16     0  00:17        3.21
  WS02006256           JUNCTION     1.72     2.35     9.28     0  00:13        2.35
  WS02004138           JUNCTION     0.12     0.14     7.39     0  00:33        0.14
  WS02004139           JUNCTION     0.91     3.88     8.79     0  00:25        1.70
  WS02004407           JUNCTION     0.85     3.24     9.55     0  00:19        1.95
  WS02006228           JUNCTION     1.99     3.03     9.68     0  00:17        3.02
  WS02006229           JUNCTION     2.08     3.25     9.94     0  00:17        3.22
  WS02006280           JUNCTION     0.91     1.83    10.10     0  00:17        1.74
  WS02006284           JUNCTION     1.14     1.95    10.35     0  00:23        1.94
  WS02006287           JUNCTION     0.89     1.75    10.70     0  00:23        1.73
  WS02003091           JUNCTION     2.45     4.03     9.82     0  00:13        3.90
  WS02003203           JUNCTION     2.39     3.83     9.82     0  00:00        3.83
  WS6145               JUNCTION     0.55     2.32    10.42     0  00:25        2.27
  WS6147               JUNCTION     0.47     2.24    10.51     0  00:24        2.10
  WS6150               JUNCTION     0.46     2.22    10.55     0  00:24        2.04
  WS6152               JUNCTION     0.46     2.20    10.54     0  00:24        2.04
  WS6155               JUNCTION     0.42     2.10    10.50     0  00:24        1.98
  WS6156               JUNCTION     0.40     2.05    10.52     0  00:24        1.92
  WS6136               JUNCTION     0.45     1.90    10.85     0  00:22        1.90
  WS6140               JUNCTION     0.61     2.45    10.39     0  00:25        2.43
  WS6142               JUNCTION     0.55     2.33    10.40     0  00:25        2.30
  WS6325               JUNCTION     0.78     2.73    10.38     0  00:33        2.72
  WS6327               JUNCTION     0.68     2.58    10.39     0  00:33        2.56
  WS6329               JUNCTION     0.64     2.51    10.39     0  00:33        2.48
  WS6332               JUNCTION     0.56     2.52    10.56     0  00:23        2.34
  WS6158               JUNCTION     0.37     2.05    10.59     0  00:24        1.84
  WS6335               JUNCTION     0.55     2.60    10.67     0  00:23        2.30
  WS6338               JUNCTION     0.49     2.55    10.75     0  00:23        2.17
  WS6340               JUNCTION     0.44     2.50    10.84     0  00:23        2.04
  WS6342               JUNCTION     0.35     2.50    11.10     0  00:23        1.77
  WS6135               JUNCTION     0.93     2.88    10.38     0  00:34        2.87
  WS6396               JUNCTION     0.60     2.01     9.56     0  00:30        2.01
  WS6399               JUNCTION     0.37     1.36     8.79     0  00:30        1.34
  WS02003082           JUNCTION     1.25     2.05     7.12     0  00:13        1.92
  WS02003077           JUNCTION     0.45     0.84     5.84     0  00:31        0.84
  WS02003080           JUNCTION     0.86     2.41     7.34     0  00:12        1.29
  WS02003083           JUNCTION     1.59     3.25     8.28     0  00:10        2.39
  WS02003084           JUNCTION     1.70     2.88     7.98     0  00:13        2.59
  WS02003085           JUNCTION     1.76     3.01     8.18     0  00:13        2.71
  WS02003086           JUNCTION     1.97     3.27     8.47     0  00:13        3.01
  WS02003087           JUNCTION     2.20     3.55     8.77     0  00:13        3.35
  WS02003088           JUNCTION     2.35     4.14     9.43     0  00:00        3.60
  WS02003089           JUNCTION     2.44     4.09     9.55     0  00:00        3.79
  WS02003090           JUNCTION     2.62     4.20     9.63     0  00:13        4.05
  WS02003081           JUNCTION     1.03     2.16     7.20     0  00:12        1.60
  WS02003122           JUNCTION     1.99     3.30     9.67     0  00:12        3.10
  WS02003187           JUNCTION     2.02     3.11     9.44     0  00:12        3.11
  WS02003188           JUNCTION     2.00     2.97     9.23     0  00:12        2.97
  WS02003190           JUNCTION     1.98     2.84     9.04     0  00:12        2.84
  WS02003193           JUNCTION     1.96     2.85     9.09     0  00:12        2.85
  WS02003195           JUNCTION     1.97     2.93     9.18     0  00:12        2.93
  WS02003196           JUNCTION     2.07     3.31     9.49     0  00:11        3.13
  WS02003198           JUNCTION     2.09     3.88    10.06     0  00:11        3.23
  WS02003200           JUNCTION     1.82     3.30     9.73     0  00:12        2.93
  WS02003201           JUNCTION     2.07     3.22     9.36     0  00:12        3.22
  WS02003202           JUNCTION     2.21     4.17    10.23     0  00:00        3.48
  WS02004041           JUNCTION     0.62     0.98     5.34     0  00:31        0.98
  WSA6400              JUNCTION     1.11     2.42     8.26     0  00:30        2.40
  WS6400               JUNCTION     0.53     1.69     8.35     0  00:30        1.66
  WSF208               JUNCTION     0.80     2.04     8.14     0  00:19        1.92
  WSF207               JUNCTION     0.67     1.99     8.13     0  00:19        1.67
  WSF206               JUNCTION     0.74     1.94     7.87     0  00:19        1.72
  WSF205               JUNCTION     0.67     1.65     7.55     0  00:19        1.59
  WSF204               JUNCTION     1.24     2.34     7.49     0  00:18        2.14
  WSF203               JUNCTION     0.62     1.52     7.23     0  00:19        1.34
  WSF202               JUNCTION     0.52     1.20     6.92     0  00:30        1.17
  WSF201               JUNCTION     0.45     1.05     6.78     0  00:30        1.02
  WSF200               JUNCTION     0.64     1.80     7.03     0  00:26        1.44
  HS02004901           JUNCTION     0.76     1.42    11.24     0  00:19        1.42
  HS02004881           JUNCTION     0.65     2.15    11.18     0  00:21        1.94
  HS02004876           JUNCTION     0.78     2.19    11.22     0  00:26        2.19
  HS02004870           JUNCTION     0.68     2.10    11.39     0  00:21        2.06
  HS02004862           JUNCTION     0.69     2.00    11.38     0  00:21        2.00
  HS02004856           JUNCTION     0.72     2.07    11.50     0  00:21        2.07
  HS02004852           JUNCTION     0.66     2.12    11.63     0  00:21        2.01
  HS02004848           JUNCTION     0.64     2.03    11.63     0  00:21        1.93
  HS02004842           JUNCTION     0.96     2.22    11.49     0  00:21        2.22
  HS02004837           JUNCTION     0.67     2.04    11.62     0  00:20        1.93
  HS02004830           JUNCTION     0.73     2.03    11.50     0  00:20        1.99
  HS02004824           JUNCTION     0.76     2.01    11.41     0  00:25        2.01
  HS02004817           JUNCTION     1.24     2.42    11.27     0  00:21        2.41
  HS02004807           JUNCTION     0.90     1.92    11.09     0  00:20        1.92
  HS02004802           JUNCTION     0.89     1.81    10.94     0  00:23        1.80
  HS02004799           JUNCTION     0.96     1.76    10.97     0  00:20        1.76
  HS02004792           JUNCTION     0.79     1.60    11.12     0  00:19        1.60
  HS02004788           JUNCTION     0.62     1.42    11.32     0  00:19        1.40
  HS02004785           JUNCTION     0.65     1.49    11.39     0  00:19        1.38
  HS02004777           JUNCTION     0.77     1.48    11.28     0  00:19        1.47
  HS02004770           JUNCTION     0.75     1.42    11.25     0  00:19        1.42
  HS02004480           JUNCTION     0.86     1.67    10.91     0  00:21        1.66
  HS02004479           JUNCTION     0.90     1.69    10.89     0  00:21        1.68
  HS02004478           JUNCTION     0.77     1.59    10.82     0  00:24        1.59
  HS02004053           JUNCTION     0.30     1.90    10.67     0  00:23        1.08
  HS02004052           JUNCTION     0.38     1.50    11.15     0  00:23        1.38
  HS02004049           JUNCTION     0.23     0.92    11.60     0  00:24        0.86
  HS02004048           JUNCTION     0.53     1.70    12.60     0  00:23        1.70
  HS02004046           JUNCTION     0.50     1.80    13.52     0  00:25        1.80
  HS02004043           JUNCTION     0.31     2.24    14.93     0  00:25        2.24
  HS02004041           JUNCTION     0.17     1.99    17.43     0  00:25        1.38
  HS02004038           JUNCTION     0.13     0.47    19.16     0  00:27        0.43
  HS02004036           JUNCTION     0.00     0.00    22.46     0  00:00        0.00
  HS02004034           JUNCTION     0.00     0.00    26.83     0  00:00        0.00
  HS02004028           JUNCTION     0.19     0.51    37.36     0  00:22        0.51
  HS02004027           JUNCTION     0.14     0.34    36.47     0  00:22        0.33
  HS02004026           JUNCTION     0.15     0.35    35.75     0  00:22        0.34
  HS02004024           JUNCTION     0.16     0.42    34.63     0  00:22        0.39
  HS02004022           JUNCTION     0.24     0.80    33.84     0  00:22        0.80
  HS02004021           JUNCTION     0.28     0.81    32.54     0  00:20        0.81
  HS02004019           JUNCTION     0.33     0.80    31.76     0  00:19        0.80
  HS02004018           JUNCTION     0.23     0.60    33.81     0  00:22        0.60
  HS02004017           JUNCTION     0.21     0.53    34.37     0  00:22        0.53
  HS02004013           JUNCTION     0.16     0.72    35.86     0  00:25        0.72
  HS02004010           JUNCTION     0.05     0.21    38.07     0  00:27        0.20
  HS02003174           JUNCTION     0.19     0.51     6.04     0  00:28        0.51
  HS02003171           JUNCTION     0.21     0.56     6.24     0  00:27        0.56
  HS02003170           JUNCTION     0.24     0.51     6.97     0  00:27        0.51
  HS02003168           JUNCTION     0.13     0.35     6.85     0  00:27        0.35
  HS02003166           JUNCTION     0.23     0.52     7.00     0  00:27        0.52
  HS02003162           JUNCTION     0.21     0.42    30.67     0  00:19        0.42
  HS02003160           JUNCTION     0.16     0.40    28.46     0  00:26        0.40
  HS02003150           JUNCTION     0.17     0.43    26.45     0  00:26        0.43
  HS02003148           JUNCTION     0.19     0.57    22.31     0  00:26        0.56
  HS02003145           JUNCTION     0.26     0.81    14.68     0  00:23        0.81
  HS02003143           JUNCTION     0.39     0.80    13.27     0  00:16        0.80
  HS02003138           JUNCTION     0.37     0.64     7.13     0  01:16        0.64
  HS02003136           JUNCTION     1.23     2.28    10.00     0  00:13        2.28
  HS02003125           JUNCTION     1.26     2.40     9.85     0  00:15        2.32
  HS02003122           JUNCTION     1.31     2.54     9.97     0  00:15        2.45
  HS02003119           JUNCTION     1.10     2.60    10.32     0  00:16        2.28
  HS02003116           JUNCTION     0.84     2.43    10.55     0  00:16        1.88
  HS02003111           JUNCTION     0.49     1.11    10.13     0  00:26        0.99
  HS02003108           JUNCTION     0.40     1.58    10.69     0  00:17        0.95
  HS02003100           JUNCTION     0.29     1.40    10.63     0  00:26        0.88
  HS02003088           JUNCTION     0.24     1.57    10.86     0  00:25        0.86
  HS02003084           JUNCTION     0.13     1.59    11.03     0  00:26        0.72
  HS02003079           JUNCTION     0.09     1.60    11.11     0  00:25        0.64
  HS02003077           JUNCTION     0.03     1.48    11.22     0  00:26        0.44
  HS02003065           JUNCTION     0.71     1.80    11.04     0  00:15        1.66
  HS02003056           JUNCTION     0.73     1.90    10.84     0  00:15        1.76
  HS02003053           JUNCTION     0.56     1.66    10.96     0  00:15        1.66
  HS02003042           JUNCTION     0.41     1.69    11.35     0  00:17        1.46
  HS02003039           JUNCTION     0.44     1.77    11.42     0  00:22        1.55
  HS02003036           JUNCTION     0.25     1.41    11.47     0  00:22        1.34
  HS02003028           JUNCTION     0.37     1.40    11.14     0  00:22        1.40
  HS02003021           JUNCTION     0.40     1.55    10.92     0  00:21        1.49
  HS02003018           JUNCTION     0.41     1.48    10.69     0  00:21        1.48
  HS02003017           JUNCTION     0.41     1.48    10.64     0  00:21        1.48
  HS02003013           JUNCTION     0.40     1.47    10.52     0  00:21        1.42
  HS02003010           JUNCTION     0.41     1.44    10.24     0  00:21        1.29
  HS02003007           JUNCTION     0.36     1.31     9.92     0  00:21        1.09
  HS02003004           JUNCTION     0.41     1.10     9.41     0  00:19        0.98
  HS02003001           JUNCTION     0.12     0.32     8.61     0  00:27        0.32
  YS02001738           JUNCTION     0.00     0.00     8.89     0  00:00        0.00
  YS02001739           JUNCTION     0.00     0.00     8.37     0  00:00        0.00
  YS02001742           JUNCTION     0.00     0.00     8.49     0  00:00        0.00
  YS02001745           JUNCTION     0.15     0.66     8.18     0  00:27        0.58
  YS02001748           JUNCTION     0.20     2.27     9.35     0  00:27        0.99
  YS02001751           JUNCTION     0.23     2.20     9.08     0  00:26        1.15
  YS02001754           JUNCTION     0.28     2.20     8.81     0  00:26        1.38
  YS02001762           JUNCTION     0.48     2.15     8.55     0  00:25        1.84
  YS02001765           JUNCTION     0.46     2.10     8.55     0  00:25        1.83
  YS02001767           JUNCTION     0.48     2.03     8.52     0  00:25        1.85
  YS02001770           JUNCTION     0.54     1.95     8.44     0  00:25        1.93
  YS02001774           JUNCTION     0.61     2.05     8.47     0  00:25        1.97
  YS02001779           JUNCTION     0.37     1.68     8.37     0  00:25        1.68
  YS02001882           JUNCTION     0.80     1.83     8.55     0  00:21        1.68
  YS02001884           JUNCTION     0.90     1.92     8.54     0  00:21        1.78
  YS02001759           JUNCTION     0.48     2.21     8.57     0  00:25        1.83
  YS02001887           JUNCTION     0.98     1.92     8.46     0  00:21        1.87
  YS02001890           JUNCTION     1.00     1.81     8.32     0  00:21        1.81
  YS02001898           JUNCTION     0.77     1.77     8.51     0  00:21        1.56
  YS02001901           JUNCTION     0.88     1.87     8.48     0  00:21        1.67
  YS02001904           JUNCTION     0.85     1.85     8.48     0  00:21        1.63
  YS02001907           JUNCTION     1.18     1.96     8.25     0  00:21        1.96
  YS02001910           JUNCTION     1.01     2.05     8.55     0  00:21        2.01
  YS02001915           JUNCTION     0.85     2.00     8.72     0  00:21        2.00
  YS02001918           JUNCTION     0.61     1.81     8.88     0  00:22        1.71
  YS02001920           JUNCTION     0.69     2.12     9.13     0  00:22        1.79
  YS02001923           JUNCTION     0.52     2.03     9.29     0  00:24        1.56
  YS02001926           JUNCTION     0.50     1.90     9.35     0  00:23        1.40
  YS02001929           JUNCTION     0.35     1.78     9.47     0  00:24        1.18
  YS02001932           JUNCTION     0.26     1.77     9.57     0  00:24        1.28
  YS02001935           JUNCTION     0.21     1.75     9.68     0  00:24        0.95
  YS02001757           JUNCTION     0.45     2.10     8.36     0  00:25        1.69
  YS02001895           JUNCTION     0.76     1.75     8.50     0  00:21        1.56
  YS02005679           JUNCTION     0.00     0.01    10.25     0  00:26        0.00
  YS02005559           JUNCTION     0.10     0.22    10.16     0  00:28        0.21
  YS02005651           JUNCTION     0.06     0.20    10.97     0  00:27        0.20
  YS02005670           JUNCTION     0.07     0.23    10.68     0  00:27        0.22
  YS02005547           JUNCTION     0.05     0.16    10.70     0  00:26        0.16
  YS02005549           JUNCTION     0.07     0.25    11.16     0  00:26        0.25
  YS02005550           JUNCTION     0.10     0.41    11.04     0  00:26        0.35
  YS02005551           JUNCTION     0.06     0.15    10.52     0  00:27        0.15
  YS02005553           JUNCTION     0.12     0.29    10.65     0  00:26        0.28
  YS02005554           JUNCTION     0.06     0.14    10.38     0  00:26        0.14
  YS02005556           JUNCTION     0.13     0.28    10.33     0  00:26        0.26
  YS02005557           JUNCTION     0.07     0.14    10.11     0  00:27        0.14
  YS02005560           JUNCTION     0.08     0.16     9.90     0  00:28        0.16
  YS02005562           JUNCTION     0.12     0.25     9.99     0  00:27        0.25
  YS02005563           JUNCTION     0.07     0.14     9.80     0  00:28        0.14
  YS02005565           JUNCTION     0.11     0.22     9.93     0  00:28        0.22
  YS02005566           JUNCTION     0.09     0.18     9.57     0  00:28        0.18
  YS02005568           JUNCTION     0.14     0.44     9.94     0  00:26        0.35
  YS02005569           JUNCTION     0.10     0.21     9.53     0  00:28        0.21
  YS02005598           JUNCTION     0.25     1.07    10.91     0  00:22        1.07
  YS02005600           JUNCTION     0.23     1.02    10.68     0  00:22        1.02
  YS02005602           JUNCTION     0.53     2.15    10.43     0  00:22        2.15
  YS02005603           JUNCTION     0.16     1.29     9.42     0  00:22        0.58
  YS02005609           JUNCTION     0.08     0.24     9.13     0  00:27        0.24
  YS02005653           JUNCTION     0.14     0.87    11.84     0  00:25        0.87
  YS02005654           JUNCTION     0.14     0.65    11.41     0  00:26        0.64
  YS02005655           JUNCTION     0.05     0.15    10.78     0  00:25        0.15
  YS02005595           JUNCTION     0.37     1.36    11.04     0  00:20        1.36
  YS02005658           JUNCTION     0.11     0.54    11.44     0  00:27        0.49
  YS02005659           JUNCTION     0.05     0.16    10.81     0  00:27        0.15
  YS02005661           JUNCTION     0.14     0.74    11.45     0  00:27        0.72
  YS02005662           JUNCTION     0.05     0.14    10.76     0  00:27        0.14
  YS02005664           JUNCTION     0.14     0.67    11.25     0  00:27        0.63
  YS02005665           JUNCTION     0.04     0.13    10.69     0  00:27        0.13
  YS02005668           JUNCTION     0.05     0.15    10.31     0  00:27        0.15
  YS02005667           JUNCTION     0.30     0.96    10.98     0  00:27        0.95
  YS02005571           JUNCTION     0.17     0.44     9.92     0  00:25        0.43
  YS02005572           JUNCTION     0.12     0.23     9.59     0  00:28        0.23
  YS02005576           JUNCTION     0.12     0.27    10.02     0  00:28        0.27
  YS02005577           JUNCTION     0.11     0.22     9.71     0  00:28        0.22
  YS02005579           JUNCTION     0.32     1.12    10.74     0  00:25        1.12
  YS02005580           JUNCTION     0.20     0.93    10.46     0  00:25        0.69
  YS02005582           JUNCTION     0.33     0.86    10.94     0  00:24        0.86
  YS02005583           JUNCTION     0.17     0.92    10.92     0  00:24        0.41
  YS02005612           JUNCTION     0.46     1.59     9.72     0  00:25        1.59
  YS02005615           JUNCTION     0.05     0.16    11.65     0  00:26        0.16
  YS02005616           JUNCTION     0.04     0.13    10.95     0  00:26        0.12
  YS02005618           JUNCTION     0.07     0.27    11.12     0  00:26        0.26
  YS02005619           JUNCTION     0.05     0.15    10.70     0  00:26        0.15
  YS02005621           JUNCTION     0.08     0.41    11.52     0  00:25        0.35
  YS02005622           JUNCTION     0.04     0.12    11.08     0  00:26        0.12
  YS02005625           JUNCTION     0.03     0.11    11.12     0  00:26        0.11
  YS02005627           JUNCTION     0.10     0.45    11.38     0  00:26        0.45
  YS02005628           JUNCTION     0.04     0.12    11.02     0  00:26        0.11
  YS02005630           JUNCTION     0.10     0.53    11.60     0  00:25        0.47
  YS02005631           JUNCTION     0.04     0.14    11.01     0  00:27        0.13
  YS02005633           JUNCTION     0.09     0.49    11.61     0  00:25        0.48
  YS02005634           JUNCTION     0.05     0.15    10.98     0  00:27        0.15
  YS02005636           JUNCTION     0.11     0.61    11.61     0  00:27        0.59
  YS02005637           JUNCTION     0.06     0.17    10.93     0  00:27        0.16
  YS02005639           JUNCTION     0.10     0.50    11.13     0  00:27        0.47
  YS02005640           JUNCTION     0.06     0.17    10.50     0  00:27        0.16
  YS02005642           JUNCTION     0.07     0.24    11.07     0  00:27        0.23
  YS02005644           JUNCTION     0.16     0.87    11.98     0  00:25        0.87
  YS02005645           JUNCTION     0.08     0.22    11.03     0  00:25        0.22
  YS02005647           JUNCTION     0.25     1.03    11.92     0  00:25        1.03
  YS02005648           JUNCTION     0.09     0.23    11.02     0  00:25        0.23
  YS02005650           JUNCTION     0.15     0.85    11.74     0  00:27        0.83
  YS02005671           JUNCTION     0.04     0.11    10.33     0  00:27        0.11
  YS02005673           JUNCTION     0.07     0.25    10.60     0  00:27        0.24
  YS02005674           JUNCTION     0.05     0.15    10.04     0  00:27        0.15
  YS02005676           JUNCTION     0.00     0.00    10.25     0  00:26        0.00
  YS02005680           JUNCTION     0.05     0.15    10.25     0  00:27        0.15
  YS02005682           JUNCTION     0.00     0.00    10.06     0  00:00        0.00
  YS02005683           JUNCTION     0.03     0.09     9.98     0  00:27        0.09
  YS02005376           JUNCTION     0.63     1.01    11.10     0  00:08        1.01
  YS02005378           JUNCTION     1.10     1.63    11.15     0  00:10        1.62
  YS02005381           JUNCTION     1.00     1.57    11.20     0  00:06        1.57
  YS02005624           JUNCTION     0.22     0.56    11.44     0  00:26        0.55
  YS02005384           JUNCTION     0.33     1.34    11.00     0  00:10        1.11
  YS02005677           JUNCTION     0.05     0.17    10.24     0  00:27        0.16
  YSB1105              JUNCTION     0.28     0.55    10.04     0  00:28        0.55
  YSB1106              JUNCTION     0.27     1.81    11.65     0  00:24        0.78
  YSB1109              JUNCTION     0.35     1.75    11.69     0  00:24        1.11
  YSB1112              JUNCTION     0.37     1.71    11.84     0  00:24        1.36
  YSB1115              JUNCTION     0.35     1.90    12.20     0  00:24        1.34
  YSB1118              JUNCTION     0.37     1.79    12.33     0  00:24        1.47
  YSB1121              JUNCTION     0.44     1.70    12.37     0  00:24        1.70
  YSB1124              JUNCTION     0.32     1.60    12.43     0  00:24        1.54
  YSB1128              JUNCTION     0.54     1.85    12.43     0  00:20        1.49
  YSB1132              JUNCTION     0.59     1.90    12.35     0  00:20        1.62
  YSB1228              JUNCTION     0.05     0.17    11.02     0  00:26        0.17
  YSB1202              JUNCTION     0.86     1.50    12.39     0  00:17        1.46
  YSB1135              JUNCTION     0.70     2.00    12.26     0  00:20        1.82
  YSB1138              JUNCTION     0.79     1.90    12.07     0  00:20        1.90
  YSB1141              JUNCTION     0.81     2.00    11.83     0  00:20        1.86
  YSB1145              JUNCTION     0.82     2.00    11.69     0  00:20        1.84
  YSB1148              JUNCTION     0.86     2.00    11.50     0  00:20        1.88
  YSB1151              JUNCTION     1.02     2.10    11.33     0  00:20        2.00
  YSB1154              JUNCTION     1.16     2.10    11.16     0  00:20        2.10
  YSB1198              JUNCTION     0.26     1.60    12.39     0  00:21        1.17
  YSB1192              JUNCTION     0.49     1.90    12.17     0  00:20        1.69
  YSB6556              JUNCTION     0.99     1.80    10.97     0  00:20        1.80
  YSB1205              JUNCTION     1.05     1.65    12.35     0  00:17        1.65
  YSB1209              JUNCTION     1.04     1.65    12.22     0  00:17        1.65
  YSB1212              JUNCTION     0.96     1.60    12.13     0  00:17        1.60
  YSB1215              JUNCTION     0.98     1.70    12.05     0  00:17        1.69
  YSB1218              JUNCTION     1.00     1.75    11.94     0  00:24        1.75
  YSB1221              JUNCTION     0.95     1.58    11.55     0  00:28        1.58
  YSB1224              JUNCTION     0.85     1.33    11.18     0  00:29        1.33
  YSB1195              JUNCTION     0.44     1.90    12.28     0  00:20        1.58
  YSB1189              JUNCTION     0.58     1.80    11.96     0  00:20        1.80
  YSB1186              JUNCTION     0.63     1.93    11.81     0  00:20        1.73
  YSB1183              JUNCTION     0.75     2.05    11.64     0  00:20        1.87
  YSB1180              JUNCTION     0.76     1.95    11.46     0  00:20        1.82
  YSB1177              JUNCTION     1.00     2.05    11.24     0  00:20        2.01
  YSB1174              JUNCTION     1.05     1.95    11.06     0  00:22        1.95
  YSB1171              JUNCTION     1.21     1.95    10.85     0  00:20        1.95
  YS02006553           JUNCTION     1.18     2.06     8.34     0  00:22        1.99
  YS02006561           JUNCTION     0.42     1.61     8.27     0  00:22        0.93
  YS02006562           JUNCTION     0.95     2.01     8.52     0  00:22        1.81
  YS02006556           JUNCTION     1.15     2.14     8.46     0  00:22        2.00
  YS02006558           JUNCTION     1.19     2.24     8.50     0  00:22        2.06
  YS6132               JUNCTION     0.56     3.23    10.55     0  00:25        1.53
  YS6137               JUNCTION     0.33     2.83    10.62     0  00:25        1.41
  YS6189               JUNCTION     0.44     2.80    10.59     0  00:29        1.72
  YS6184               JUNCTION     0.44     2.65    10.54     0  00:25        1.95
  YS6179               JUNCTION     0.39     2.60    10.58     0  00:25        1.93
  YS6176               JUNCTION     0.30     2.40    10.60     0  00:29        1.80
  YS6171               JUNCTION     0.31     2.10    10.51     0  00:25        1.87
  YS6168               JUNCTION     0.33     2.00    10.51     0  00:25        2.00
  YS6164               JUNCTION     0.17     1.90    10.63     0  00:25        1.90
  YS6162               JUNCTION     0.24     2.10    10.75     0  00:25        1.98
  YS6187               JUNCTION     0.48     2.75    10.53     0  00:29        1.81
  YS6363               JUNCTION     0.36     3.05    10.84     0  00:25        1.32
  YS6360               JUNCTION     0.47     3.00    10.80     0  00:25        1.55
  YS6354               JUNCTION     0.48     2.60    10.75     0  00:25        1.98
  YS6351               JUNCTION     0.57     2.50    10.71     0  00:24        2.30
  YS6350               JUNCTION     0.63     2.50    10.72     0  00:24        2.49
  YS6348               JUNCTION     0.60     2.45    10.85     0  00:23        2.45
  YS6344               JUNCTION     0.46     2.28    10.87     0  00:23        2.26
  YS6375               JUNCTION     0.10     0.37     8.79     0  00:27        0.36
  YS6377               JUNCTION     0.15     0.43     8.79     0  00:27        0.43
  YS6381               JUNCTION     0.17     0.50     8.63     0  00:27        0.50
  YS6386               JUNCTION     0.20     0.58     8.56     0  00:27        0.58
  YS6390               JUNCTION     0.40     0.69     8.38     0  00:27        0.68
  YS6394               JUNCTION     0.11     0.29     8.21     0  00:27        0.29
  YS6404               JUNCTION     0.51     3.00    10.23     0  00:24        1.21
  YS6401               JUNCTION     0.17     0.42     7.64     0  00:30        0.41
  YS02004319           JUNCTION     0.36     1.18    20.80     0  00:19        1.18
  YS02004320           JUNCTION     0.00     0.00    22.64     0  00:37        0.00
  YS02004321           JUNCTION     0.00     0.00    26.80     0  00:36        0.00
  YS02004307           JUNCTION     0.15     0.50    11.03     0  00:30        0.50
  YS02004309           JUNCTION     0.83     1.55    13.07     0  00:09        1.55
  YS02004312           JUNCTION     0.56     1.48    14.91     0  00:14        1.48
  YS02004314           JUNCTION     0.41     1.28    16.99     0  00:19        1.28
  YS02004316           JUNCTION     0.42     1.36    19.13     0  00:19        1.36
  YS02001783           JUNCTION     0.63     1.80     7.94     0  00:22        1.25
  YS02001784           JUNCTION     0.61     1.48     7.55     0  00:22        1.14
  YS02001786           JUNCTION     0.49     1.19     7.22     0  00:22        0.88
  YS02001788           JUNCTION     0.35     0.63     6.60     0  00:24        0.62
  YS02001790           JUNCTION     0.40     0.72     6.36     0  00:24        0.71
  YS02001791           JUNCTION     0.25     0.44     5.91     0  00:35        0.43
  YS02001793           JUNCTION     0.13     0.29     5.12     0  00:40        0.26
  YS02003309           JUNCTION     0.55     1.21     9.77     0  00:13        1.04
  YS02003306           JUNCTION     0.62     1.16     9.60     0  00:12        1.16
  YS02003269           JUNCTION     0.12     0.17     7.76     0  00:20        0.17
  YS02003272           JUNCTION     0.34     1.66     9.40     0  00:13        0.58
  YS02003278           JUNCTION     0.67     1.42     9.34     0  00:13        1.20
  YS02003281           JUNCTION     0.74     1.39     9.47     0  00:13        1.39
  YS02003284           JUNCTION     0.80     1.40     9.41     0  00:12        1.40
  YS02003287           JUNCTION     0.73     1.27     9.34     0  00:12        1.27
  YS02003290           JUNCTION     0.61     1.17     9.45     0  00:12        1.10
  YS02003294           JUNCTION     0.75     1.24     9.42     0  00:12        1.24
  YS02003275           JUNCTION     0.51     1.43     9.34     0  00:12        0.91
  YS02003297           JUNCTION     0.73     1.22     9.43     0  00:12        1.22
  YS02003300           JUNCTION     0.67     1.15     9.42     0  00:12        1.15
  YS02003303           JUNCTION     0.66     1.14     9.46     0  00:12        1.14
  YSB1227              JUNCTION     0.02     0.12    11.02     0  00:26        0.11
  CaochengRainPumpOutfall1 OUTFALL      0.00     0.00     6.00     0  00:00        0.00
  JiankangRainPumpOutfall2 OUTFALL      0.00     0.00     6.00     0  00:00        0.00
  JiankangRainPumpOutfall1 OUTFALL      0.00     0.00     6.00     0  00:00        0.00
  CaochengRainPumpOutfall2 OUTFALL      0.00     0.00     6.00     0  00:00        0.00
  YS02005684           OUTFALL      0.03     0.09     8.49     0  00:27        0.09
  YS02005681           OUTFALL      0.05     0.15     9.37     0  00:27        0.14
  YS02005678           OUTFALL      0.05     0.17     8.70     0  00:27        0.16
  YS02005675           OUTFALL      0.05     0.15     8.69     0  00:27        0.15
  YS02005672           OUTFALL      0.04     0.11     8.44     0  00:27        0.11
  YS02005669           OUTFALL      0.05     0.15     8.86     0  00:27        0.14
  YS02005666           OUTFALL      0.04     0.13     8.81     0  00:27        0.13
  YS02005663           OUTFALL      0.05     0.14     8.88     0  00:27        0.14
  YS02005660           OUTFALL      0.05     0.16     8.97     0  00:27        0.15
  YS02005657           OUTFALL      0.00     0.00     8.74     0  00:00        0.00
  YS02005652           OUTFALL      0.06     0.20     8.82     0  00:27        0.19
  YS02005649           OUTFALL      0.09     0.23     8.93     0  00:25        0.23
  YS02005646           OUTFALL      0.08     0.22     8.22     0  00:25        0.22
  YS02005643           OUTFALL      0.07     0.24     8.80     0  00:27        0.23
  YS02005641           OUTFALL      0.06     0.17     8.86     0  00:27        0.16
  YS02005638           OUTFALL      0.06     0.17     8.83     0  00:27        0.16
  YS02005635           OUTFALL      0.05     0.15     8.81     0  00:27        0.15
  YS02005632           OUTFALL      0.04     0.13     8.69     0  00:27        0.13
  YS02005629           OUTFALL      0.04     0.11     8.59     0  00:26        0.11
  YS02005626           OUTFALL      0.03     0.11     8.63     0  00:26        0.10
  YS02005623           OUTFALL      0.04     0.12     8.59     0  00:26        0.12
  YS02005620           OUTFALL      0.05     0.15     8.94     0  00:26        0.14
  YS02005617           OUTFALL      0.04     0.13     8.96     0  00:26        0.12
  YSB1103              OUTFALL      0.29     0.60     8.60     0  00:25        0.60
  YSB1229              OUTFALL      0.05     0.17     8.97     0  00:26        0.17
  YS02005548           OUTFALL      0.05     0.16     9.16     0  00:26        0.16
  YS02005552           OUTFALL      0.06     0.15     8.78     0  00:27        0.15
  YS02005555           OUTFALL      0.06     0.14     8.87     0  00:26        0.14
  YS02005558           OUTFALL      0.07     0.14     8.85     0  00:27        0.14
  YS02005561           OUTFALL      0.08     0.16     8.84     0  00:28        0.16
  YS02005564           OUTFALL      0.07     0.14     8.62     0  00:28        0.14
  YS02005567           OUTFALL      0.09     0.18     8.72     0  00:28        0.18
  YS02005570           OUTFALL      0.10     0.21     8.92     0  00:28        0.21
  YS02005574           OUTFALL      0.12     0.23     9.07     0  00:28        0.23
  YS02005578           OUTFALL      0.11     0.22     9.00     0  00:28        0.22
  WS02005134           OUTFALL      0.00     0.00     8.74     0  00:00        0.00
  YS02005581           OUTFALL      0.14     0.30     9.10     0  00:25        0.30
  YS02005584           OUTFALL      0.14     0.30     9.26     0  00:24        0.30
  YS02005593           OUTFALL      0.20     0.28     9.00     0  00:33        0.28
  YS02005596           OUTFALL      0.14     0.30     8.84     0  00:20        0.30
  YS02005374           OUTFALL      0.12     0.30     8.54     0  00:21        0.30
  YS02005375           OUTFALL      0.12     0.30     8.69     0  00:21        0.30
  YS02005607           OUTFALL      0.12     0.30     7.53     0  00:22        0.30
  YS02005610           OUTFALL      0.08     0.24     8.86     0  00:27        0.24
  YS02005613           OUTFALL      0.13     0.30     8.58     0  00:24        0.30
  HS02003172           OUTFALL      0.19     0.51     5.96     0  00:28        0.51
  YS6395               OUTFALL      0.11     0.29     6.71     0  00:27        0.29
  YS6405               OUTFALL      0.16     0.41     3.86     0  00:27        0.39
  WSC                  OUTFALL      0.57     0.80     5.00     0  00:23        0.80
  JiankangQianchi      STORAGE      2.51     4.21     5.01     0  00:39        4.14
  CaochengTiaoxuchi    STORAGE      0.88     1.40     6.90     0  00:37        1.40
  XierchiQianchi       STORAGE      6.97     7.47     5.47     0  02:02        7.47
  
  
  *******************
  Node Inflow Summary
  *******************
  
  -------------------------------------------------------------------------------------------------
                                  Maximum  Maximum                  Lateral       Total        Flow
                                  Lateral    Total  Time of Max      Inflow      Inflow     Balance
                                   Inflow   Inflow   Occurrence      Volume      Volume       Error
  Node                 Type           LPS      LPS  days hr:min    10^6 ltr    10^6 ltr     Percent
  -------------------------------------------------------------------------------------------------
  WS02001211           JUNCTION      7.35   585.48     0  00:21      0.0539        1.31       2.628
  WS02001212           JUNCTION      0.00   588.65     0  00:20           0        1.33       1.098
  WS02001213           JUNCTION      0.00   664.06     0  00:20           0        1.37       1.540
  WS02003069           JUNCTION      0.32  2517.90     0  00:31     0.00235        9.51       0.275
  WS02003072           JUNCTION      0.00  2517.96     0  00:31           0        9.52       0.299
  WS02003073           JUNCTION      1.82  3087.05     0  00:31      0.0134        12.3       0.149
  WS02003076           JUNCTION      0.00  3086.87     0  00:31           0        12.3       0.189
  WS02003060           JUNCTION     16.53  2517.68     0  00:31       0.121        9.71       0.262
  WS02003066           JUNCTION      0.00  2448.11     0  00:27           0        8.32       0.043
  WS02003059           JUNCTION      0.00   790.65     0  00:19           0        1.44       2.668
  WS02003115           JUNCTION      0.00   477.10     0  00:42           0        1.11      -0.016
  WS02003116           JUNCTION      0.00   428.62     0  00:12           0       0.963       0.051
  WS02003118           JUNCTION      0.09   512.62     0  00:12    2.64e-06       0.966      -0.029
  WS02003215           JUNCTION      0.17  2769.63     0  00:27    1.99e-05        3.06      -0.061
  WS02003110           JUNCTION      0.18   519.47     0  00:27     0.00132        0.59      -0.078
  WS02003111           JUNCTION      1.53   997.95     0  00:27      0.0107        1.63      -0.052
  WS02005155           JUNCTION      0.38   519.34     0  00:27     0.00279       0.579      -0.033
  WS02005154           JUNCTION    518.96   518.96     0  00:27       0.568        0.57       0.188
  WS02005193           JUNCTION      0.25    61.04     0  00:08     5.3e-05      0.0196      -0.190
  WS02005196           JUNCTION      0.29    28.78     0  00:16    1.79e-05     0.00535       0.959
  WS02003067           JUNCTION      0.00  1926.69     0  00:26           0        6.85       0.099
  WS02004401           JUNCTION      0.00  1124.16     0  00:18           0        4.99       0.359
  WS02004402           JUNCTION      0.00  1124.08     0  00:18           0        4.99       0.346
  WS02004403           JUNCTION      0.00  1124.24     0  01:07           0           5       0.318
  WS02004404           JUNCTION      0.16  1124.81     0  01:07     0.00119        4.99       0.239
  WS02004406           JUNCTION      0.00  1125.20     0  00:18           0           5       0.601
  WS02004409           JUNCTION      0.24  1862.65     0  00:24    0.000343        7.07       0.184
  WS02004410           JUNCTION      0.00  1926.29     0  00:26           0        7.17       0.207
  WS02004411           JUNCTION      0.00  1926.32     0  00:26           0        6.91       0.225
  WS02004412           JUNCTION      0.00  1926.46     0  00:26           0         6.9       0.250
  WS02004413           JUNCTION      0.00  1926.73     0  00:26           0        6.88       0.384
  WS02004405           JUNCTION      0.19  1125.22     0  00:18    0.000549           5       0.368
  WS02006109           JUNCTION      1.95  1308.01     0  00:00      0.0098        5.81       0.302
  WS02006110           JUNCTION      0.36  1225.77     0  00:16    0.000312        5.03      -0.559
  WS02006111           JUNCTION      0.04  1224.75     0  00:17    9.26e-06        5.05      -0.704
  WS02006112           JUNCTION      0.48  2307.30     0  00:00    2.63e-05        5.08       0.135
  WS02006113           JUNCTION      0.07  1225.81     0  00:16    4.13e-05        5.02      -0.748
  WS02006115           JUNCTION      0.00  1366.55     0  00:00           0        4.98       0.237
  WS02006116           JUNCTION      0.38  1124.18     0  00:18    0.000692        4.99       0.179
  WS02006230           JUNCTION     10.47  1027.54     0  00:24      0.0754        3.53       0.193
  WS02006231           JUNCTION      0.67   453.45     0  00:26     0.00179        2.03       0.137
  WS02006232           JUNCTION      0.55   453.63     0  00:26    0.000275        2.01       0.294
  WS02006234           JUNCTION      0.78   453.47     0  00:26    0.000386           2       0.045
  WS02006235           JUNCTION      1.33   479.61     0  00:15     0.00272        1.92       0.177
  WS02006238           JUNCTION      1.68   599.52     0  00:15     0.00271        1.73      -0.061
  WS02006240           JUNCTION      0.00   606.15     0  00:15           0        1.73       0.125
  WS02006242           JUNCTION      2.04   574.73     0  00:16     0.00427        1.73       0.258
  WS02006243           JUNCTION      2.17   527.55     0  00:16       0.005        1.28       0.096
  WS02006245           JUNCTION      2.30   398.97     0  00:16     0.00382        1.27       0.304
  WS02006247           JUNCTION      0.00   426.88     0  00:16           0        1.27       0.143
  WS02006248           JUNCTION      2.79   477.18     0  00:16     0.00478        1.51       0.055
  WS02006249           JUNCTION      0.12  1391.67     0  00:27    3.49e-06        4.63       0.082
  WS02006239           JUNCTION      1.57   509.22     0  00:15     0.00256        1.73       0.019
  WS02006251           JUNCTION      1.53  1759.41     0  00:27     0.00254        4.94       0.021
  WS02006252           JUNCTION      0.00   767.78     0  00:27           0        1.78      -0.046
  WS02006253           JUNCTION     59.53  1759.28     0  00:27      0.0636        4.14       0.039
  WS02006256           JUNCTION      0.00   300.00     0  00:19           0        1.29       0.022
  WS02004138           JUNCTION      0.00   190.00     0  00:29           0        1.17       0.248
  WS02004139           JUNCTION      0.32   611.27     0  00:21     0.00235        1.21       2.254
  WS02004407           JUNCTION      0.09  1862.76     0  00:24    0.000165        7.15       0.127
  WS02006228           JUNCTION      1.26  1289.09     0  00:24     0.00109        5.79       0.181
  WS02006229           JUNCTION      1.02  2307.04     0  00:24     0.00101         8.7       0.144
  WS02006280           JUNCTION      0.26  2306.55     0  00:24    0.000454        8.11      -0.016
  WS02006284           JUNCTION      0.19  2306.25     0  00:24    0.000751        8.12       0.050
  WS02006287           JUNCTION      0.21  2306.33     0  00:24    0.000115        8.12       0.065
  WS02003091           JUNCTION      0.53   918.63     0  00:00     0.00121        2.83      -1.621
  WS02003203           JUNCTION      0.32  2282.63     0  00:00    0.000111        4.67      -0.341
  WS6145               JUNCTION      0.32   228.08     0  00:23     0.00059      0.0902       0.372
  WS6147               JUNCTION      0.00   227.61     0  00:23           0       0.079       0.241
  WS6150               JUNCTION      0.21   227.74     0  00:23    0.000668      0.0681       0.479
  WS6152               JUNCTION      0.58   235.94     0  00:23     0.00423      0.0569       0.730
  WS6155               JUNCTION      0.18   230.36     0  00:23    4.54e-05       0.042       0.601
  WS6156               JUNCTION      0.74   233.63     0  00:24     0.00383      0.0308       0.524
  WS6136               JUNCTION      0.20   724.59     0  00:23    5.24e-05        1.35      -0.004
  WS6140               JUNCTION      0.23   228.58     0  00:23    0.000176       0.111       0.132
  WS6142               JUNCTION      0.24   228.43     0  00:23    0.000225       0.101       0.219
  WS6325               JUNCTION      0.23   129.70     0  00:22    0.000248      0.0921       0.127
  WS6327               JUNCTION      0.19   129.07     0  00:22    0.000545       0.081       0.135
  WS6329               JUNCTION      0.54   128.95     0  00:22     0.00212      0.0694       0.231
  WS6332               JUNCTION      0.39   130.63     0  00:22    0.000957       0.056       0.170
  WS6158               JUNCTION      1.89   230.99     0  00:24      0.0121      0.0167      -1.028
  WS6335               JUNCTION      0.72   132.30     0  00:22     0.00381      0.0438       0.392
  WS6338               JUNCTION      0.45   133.04     0  00:22     0.00132      0.0286       0.120
  WS6340               JUNCTION      0.31   129.34     0  00:22    0.000303      0.0158       0.109
  WS6342               JUNCTION      0.67   136.18     0  00:23     0.00322     0.00648      -0.705
  WS6135               JUNCTION      0.13   724.46     0  00:23    3.78e-05        1.44       0.152
  WS6396               JUNCTION      0.24   558.63     0  00:25    3.12e-05        1.34       0.046
  WS6399               JUNCTION      0.09   558.83     0  00:25    0.000162        1.34       0.015
  WS02003082           JUNCTION      0.52   590.48     0  00:24     0.00163        2.85       0.307
  WS02003077           JUNCTION      0.60   591.36     0  00:24      0.0044        2.84       0.159
  WS02003080           JUNCTION      0.00   590.69     0  00:24           0        2.84       0.111
  WS02003083           JUNCTION      0.00   590.41     0  00:24           0        2.85       0.106
  WS02003084           JUNCTION      0.04   590.76     0  00:24    0.000323        2.86       0.128
  WS02003085           JUNCTION      0.00   590.50     0  00:24           0        2.86       0.006
  WS02003086           JUNCTION      0.49   590.48     0  00:24      0.0036        2.86       0.157
  WS02003087           JUNCTION      0.00  1088.41     0  00:00           0        2.86       0.123
  WS02003088           JUNCTION      0.55  2146.84     0  00:00     0.00165        2.88       0.164
  WS02003089           JUNCTION      0.27  1591.02     0  00:00    0.000506        2.86      -0.640
  WS02003090           JUNCTION      0.43   851.74     0  00:00    0.000751        2.83      -1.006
  WS02003081           JUNCTION      0.19   590.52     0  00:24    8.75e-05        2.84       0.257
  WS02003122           JUNCTION      0.00   456.19     0  00:12           0       0.955       0.262
  WS02003187           JUNCTION    716.07   893.12     0  00:27       0.876         1.8       0.198
  WS02003188           JUNCTION      0.50   403.51     0  00:33     0.00132        1.49       0.318
  WS02003190           JUNCTION      0.65   608.64     0  00:33     0.00127        2.13       0.309
  WS02003193           JUNCTION   1161.84  1425.49     0  00:27         1.4        2.57       0.225
  WS02003195           JUNCTION      0.65   420.79     0  00:12     0.00128        1.23       0.427
  WS02003196           JUNCTION      0.00   350.10     0  00:11           0        1.24       0.504
  WS02003198           JUNCTION    327.49   438.97     0  00:00       0.488        1.31       0.694
  WS02003200           JUNCTION      4.23   321.82     0  00:11       0.029        0.88      -2.374
  WS02003201           JUNCTION      0.16   580.83     0  00:28    9.13e-05        2.12      -0.740
  WS02003202           JUNCTION      0.04   709.00     0  00:00    7.76e-05        2.13       0.149
  WS02004041           JUNCTION      0.50  3085.52     0  00:31     0.00367        12.3       0.060
  WSA6400              JUNCTION      0.09   559.02     0  00:25    0.000286        1.34       0.227
  WS6400               JUNCTION      0.00   558.93     0  00:25           0        1.34       0.008
  WSF208               JUNCTION      0.00   558.99     0  00:25           0        1.34       0.095
  WSF207               JUNCTION      1.60   560.45     0  00:25      0.0117        1.59       0.023
  WSF206               JUNCTION      0.00   488.63     0  00:25           0        1.48       0.059
  WSF205               JUNCTION      0.00   488.58     0  00:25           0        1.48       0.266
  WSF204               JUNCTION      0.00   488.57     0  00:25           0        1.48       0.642
  WSF203               JUNCTION      0.00   488.54     0  00:25           0        1.47       0.244
  WSF202               JUNCTION      1.27   489.86     0  00:25     0.00931        1.47       0.143
  WSF201               JUNCTION      0.00   489.86     0  00:25           0        1.47       0.090
  WSF200               JUNCTION      0.00  2389.29     0  00:26           0        8.31       0.034
  HS02004901           JUNCTION      0.19   265.79     0  00:50    0.000157       0.565       0.434
  HS02004881           JUNCTION    226.40  1699.67     0  00:27       0.261        4.06       0.007
  HS02004876           JUNCTION    400.14  1518.67     0  00:34       0.511         3.8       0.089
  HS02004870           JUNCTION    412.72  1430.85     0  00:21       0.494        3.29       0.025
  HS02004862           JUNCTION    404.53  1314.32     0  00:21       0.667        2.98       0.048
  HS02004856           JUNCTION    307.91  1258.76     0  00:21       0.372        2.31       0.091
  HS02004852           JUNCTION      0.00  1131.79     0  00:21           0        1.94       0.041
  HS02004848           JUNCTION    868.72  1140.14     0  00:21        1.57        2.23       0.042
  HS02004842           JUNCTION      0.12   921.06     0  00:20    6.39e-06        0.97       1.454
  HS02004837           JUNCTION    687.54   924.44     0  00:20       0.899        1.38       0.105
  HS02004830           JUNCTION      0.15   713.43     0  00:20      0.0011        1.05       0.205
  HS02004824           JUNCTION    954.88  1539.34     0  00:29        1.57        2.35       0.056
  HS02004817           JUNCTION      0.74  1196.81     0  00:35     0.00443        1.93       1.001
  HS02004807           JUNCTION    762.34  1958.39     0  00:27         0.9        2.76       0.241
  HS02004802           JUNCTION      0.08  1233.33     0  00:35     2.2e-05        2.29       0.257
  HS02004799           JUNCTION    604.88  1746.97     0  00:27       0.736        5.17       0.145
  HS02004792           JUNCTION   3069.85  3997.48     0  00:28        4.54        7.04       0.028
  HS02004788           JUNCTION    929.04   955.81     0  00:27        1.29        2.51       0.024
  HS02004785           JUNCTION      0.15   615.08     0  00:19      0.0011        1.23       0.192
  HS02004777           JUNCTION      0.37   617.00     0  00:19     0.00104        1.23       0.625
  HS02004770           JUNCTION   2546.42  2547.94     0  00:28        3.49        3.51       0.139
  HS02004480           JUNCTION      0.29  2232.79     0  00:20     0.00057        6.15       0.060
  HS02004479           JUNCTION      0.40   704.00     0  00:20    0.000929         1.5       0.113
  HS02004478           JUNCTION      0.17  2306.53     0  00:24    0.000102        8.16      -0.000
  HS02004053           JUNCTION      0.09  1047.87     0  00:23    1.98e-05        2.24      -0.037
  HS02004052           JUNCTION      0.26  1047.99     0  00:23    0.000135        2.24       0.015
  HS02004049           JUNCTION      0.49  1517.83     0  00:24     0.00193        2.77       0.005
  HS02004048           JUNCTION   1608.11  2881.31     0  00:27        1.75        3.36       0.007
  HS02004046           JUNCTION      0.87  1399.56     0  00:28     0.00587        1.63       0.078
  HS02004043           JUNCTION      1.63  1509.00     0  00:27       0.011        1.64      -0.003
  HS02004041           JUNCTION      0.11  1507.53     0  00:27    0.000567        1.63       0.003
  HS02004038           JUNCTION   1512.34  1512.34     0  00:27        1.63        1.63       0.007
  HS02004036           JUNCTION      0.00     0.00     0  00:00           0           0       0.000 ltr
  HS02004034           JUNCTION      0.00     0.00     0  00:00           0           0       0.000 ltr
  HS02004028           JUNCTION   1351.94  1351.94     0  00:26        1.42        1.42      -0.001
  HS02004027           JUNCTION      0.17   617.01     0  00:22    3.51e-05        1.16       0.002
  HS02004026           JUNCTION      0.12   617.27     0  00:22    2.28e-05        1.16       0.001
  HS02004024           JUNCTION      0.00   615.97     0  00:22           0        1.16       0.002
  HS02004022           JUNCTION    511.29  1111.44     0  00:27       0.565        1.72      -0.000
  HS02004021           JUNCTION      0.34   801.15     0  00:33     0.00168        1.59       0.000
  HS02004019           JUNCTION      0.14  1522.08     0  00:22    4.28e-06         3.4       0.002
  HS02004018           JUNCTION    288.44  1071.60     0  00:26        0.27        2.05      -0.003
  HS02004017           JUNCTION      0.10  1595.36     0  00:25    3.08e-06         2.2       0.002
  HS02004013           JUNCTION   1254.90  1881.63     0  00:27        1.61        2.27      -0.001
  HS02004010           JUNCTION    626.87   626.87     0  00:27       0.662       0.662       0.001
  HS02003174           JUNCTION      0.00  2940.15     0  00:28           0        4.89       0.035
  HS02003171           JUNCTION    361.10  2827.74     0  00:27       0.463        4.49       0.067
  HS02003170           JUNCTION      0.00  2461.84     0  00:28           0        4.03       0.053
  HS02003168           JUNCTION      0.00  2463.03     0  00:27           0        4.03       0.032
  HS02003166           JUNCTION    889.52  2458.54     0  00:28        1.24        4.03       0.022
  HS02003162           JUNCTION      0.17  1063.09     0  00:26    7.53e-05        2.88       0.004
  HS02003160           JUNCTION    820.73  1885.34     0  00:26       0.828        3.71       0.002
  HS02003150           JUNCTION      0.18  1882.18     0  00:26    0.000264        3.71       0.002
  HS02003148           JUNCTION    905.36  2781.22     0  00:26       0.906        4.61       0.004
  HS02003145           JUNCTION   1299.14  4057.67     0  00:26        1.41        6.03       0.003
  HS02003143           JUNCTION      0.28  2649.27     0  00:23     0.00132        5.52       0.023
  HS02003138           JUNCTION      0.38     0.38     0  00:38    0.000727    0.000727       0.000
  HS02003136           JUNCTION    520.31  2644.49     0  00:27       0.593         5.5       0.222
  HS02003125           JUNCTION      0.41  2769.63     0  00:27     0.00301        2.95       0.047
  HS02003122           JUNCTION    485.11  2768.36     0  00:27         0.6        2.92       0.020
  HS02003119           JUNCTION   1402.09  2285.80     0  00:27        1.48        2.33      -0.005
  HS02003116           JUNCTION      0.06   910.40     0  00:27    0.000403       0.826       0.040
  HS02003111           JUNCTION      0.00   794.22     0  00:27           0       0.792       0.426
  HS02003108           JUNCTION      0.00   794.20     0  00:27           0       0.794       0.773
  HS02003100           JUNCTION      0.00   794.26     0  00:27           0       0.794       0.357
  HS02003088           JUNCTION    766.11   794.12     0  00:27       0.781       0.833       0.176
  HS02003084           JUNCTION      0.03   348.57     0  00:18    0.000235      0.0811       0.095
  HS02003079           JUNCTION      0.15   272.96     0  00:18     0.00108      0.0481      -0.032
  HS02003077           JUNCTION      0.00   220.64     0  00:25           0      0.0128      -0.812
  HS02003065           JUNCTION      0.29  1214.07     0  00:16    0.000226        3.56      -0.006
  HS02003056           JUNCTION      0.00  2124.64     0  00:27           0        4.89       0.014
  HS02003053           JUNCTION    513.72  1186.40     0  00:27       0.592        1.36       0.001
  HS02003042           JUNCTION      0.00   672.53     0  00:27           0       0.758      -0.006
  HS02003039           JUNCTION      0.00   672.48     0  00:27           0       0.739       0.034
  HS02003036           JUNCTION   1347.76  1347.76     0  00:27        1.55        1.55       0.031
[...]
  WS02003073WS02003076        0.69      0.69      0.95      0.26         0.01
  HS02004901HS02004770        0.75      0.75      0.75      0.13         0.01
  HS02004876HS02004881        0.74      0.76      0.74      1.16         0.74
  HS02004870HS02004876        0.71      0.71      0.76      0.01         0.01
  HS02004049HS02004052        0.22      0.22      0.24      0.01         0.01
  HS02004048HS02004049        0.33      0.43      0.33      0.46         0.33
  HS02004046HS02004048        0.23      0.23      0.43      0.01         0.01
  HS02004043HS02004046        0.19      0.19      0.26      0.08         0.08
  HS02004041HS02004043        0.06      0.06      0.18      0.01         0.01
  HS02004038HS02004041        0.01      0.01      0.06      0.01         0.01
  HS02004028HS02004027        0.01      0.20      0.01      0.22         0.01
  HS02003143HS02003065        0.67      0.67      0.80      0.01         0.01
  HS02004842HS02004848        0.67      0.67      0.79      0.01         0.01
  HS02004837HS02004842        0.69      0.69      0.79      0.01         0.01
  HS02004830HS02004837        0.69      0.69      0.72      0.01         0.01
  HS02004824HS02004830        0.72      0.72      0.75      0.01         0.01
  HS02004817HS02004824        0.75      0.75      1.06      0.01         0.01
  HS02004770HS02004777        0.75      0.75      0.76      0.01         0.01
  HS02004799HS02004480        0.85      0.85      0.89      0.89         0.01
  HS02004792HS02004799        0.81      0.81      0.89      0.01         0.01
  HS02004788HS02004792        0.72      0.72      0.81      0.01         0.01
  HS02004785HS02004788        0.72      0.72      0.72      0.92         0.56
  HS02004777HS02004785        0.72      0.72      0.76      0.01         0.01
  HS02004480HS02004478        0.81      0.85      0.81      1.30         0.81
  HS02004479HS02004480        0.85      0.85      0.87      0.01         0.01
  HS02003013HS02003010        0.41      0.41      0.46      0.30         0.30
  HS02003010HS02003007        0.40      0.40      0.41      0.46         0.40
  HS02003007HS02003004        0.41      0.41      0.50      0.26         0.26
  HS02003004HS02003001        0.01      0.50      0.01      0.88         0.01
  HS02003065HS02003056        0.80      0.80      0.85      0.01         0.01
  HS02003042HS02003053        0.38      0.38      0.78      0.01         0.01
  HS02003028HS02003021        0.30      0.30      0.37      0.01         0.01
  HS02003021HS02003018        0.39      0.39      0.40      0.16         0.17
  HS02003018HS02003017        0.40      0.40      0.40      0.11         0.08
  HS02003017HS02003013        0.40      0.40      0.41      0.36         0.34
  HS02004862HS02004870        0.69      0.69      0.71      0.24         0.24
  HS02004848HS02004852        0.67      0.67      0.69      0.03         0.01
  HS02004856HS02004862        0.66      0.66      0.69      0.01         0.01
  HS02004852HS02004856        0.69      0.69      0.70      0.02         0.01
  HS02004024HS02004022        0.01      0.01      0.25      0.01         0.01
  HS02004022HS02004021        0.25      0.25      0.36      0.01         0.01
  HS02004021HS02004019        0.36      0.36      0.41      0.28         0.29
  HS02004019HS02003162        0.01      0.41      0.01      0.43         0.01
  HS02004052HS02004053        0.24      0.24      0.24      0.26         0.24
  HS02003122HS02003125        0.99      0.99      1.00      0.22         0.26
  HS02003119HS02003122        0.93      0.93      1.01      0.01         0.01
  HS02003116HS02003119        0.79      0.79      0.91      0.01         0.01
  HS02003111HS02003116        0.01      0.01      0.81      0.01         0.01
  HS02004018HS02004019        0.29      0.29      0.41      0.01         0.01
  HS02003056HS02003136        0.81      0.81      0.91      0.01         0.01
  HS02004017HS02004018        0.27      0.27      0.29      0.01         0.01
  HS02004013HS02004017        0.10      0.10      0.27      0.11         0.09
  HS02004010HS02004013        0.01      0.01      0.10      0.01         0.01
  HS02004802HS02004478        0.81      0.81      0.85      0.26         0.01
  HS02004478WS02006287        0.73      0.73      0.84      0.01         0.01
  HS02003079HS02003084        0.04      0.04      0.05      0.01         0.01
  HS02003148HS02003145        0.01      0.01      0.20      0.06         0.01
  HS02003145HS02003143        0.20      0.20      0.64      0.19         0.17
  HS02003136WS02003203        0.98      0.98      1.11      0.01         0.01
  HS02003084HS02003088        0.05      0.05      0.09      0.01         0.01
  HS02003077HS02003079        0.01      0.01      0.04      0.01         0.01
  HS02003108HS02003111        0.24      0.24      0.45      0.02         0.02
  HS02003100HS02003108        0.12      0.12      0.24      0.01         0.01
  HS02003088HS02003100        0.10      0.10      0.12      0.05         0.04
  HS02004817HS02004807        0.83      0.83      1.06      0.01         0.01
  HS02004807HS02004802        0.83      0.83      0.84      0.39         0.39
  HS02003053HS02003056        0.78      0.78      0.85      0.01         0.01
  HS02003039HS02003042        0.43      0.44      0.44      0.30         0.02
  HS02003036HS02003039        0.25      0.25      0.30      0.01         0.01
  YS02001759YS02001757        0.21      0.22      0.23      0.21         0.18
  YS02001762YS02001759        0.21      0.22      0.22      0.20         0.17
  YS02001765YS02001762        0.21      0.21      0.22      0.11         0.09
  YS02001770YS02001767        0.21      0.23      0.21      0.75         0.20
  YS02001774YS02001770        0.22      0.22      0.25      0.01         0.01
  YS02001779YS02001774        0.18      0.18      0.25      0.01         0.01
  YS02001767YS02001765        0.21      0.21      0.21      0.25         0.20
  YS02006561YS02001783        0.53      0.53      0.71      0.01         0.01
  YS02001783YS02001784        0.70      0.71      0.70      0.79         0.70
  YS02001784YS02001785        0.60      0.70      0.60      0.89         0.60
  YS02001790YS02001791        0.01      0.01      0.01      0.69         0.01
  YS02001910YS02001907        0.73      0.73      0.83      0.12         0.12
  YS02001786YS02001788        0.01      0.60      0.01      0.85         0.01
  YS02001915YS02001910        0.67      0.67      0.73      0.01         0.01
  YS02001918YS02001915        0.58      0.58      0.67      0.01         0.01
  YS02001923YS02001920        0.51      0.51      0.60      0.01         0.01
  YS02001926YS02001923        0.24      0.24      0.26      0.02         0.01
  YS02001929YS02001926        0.14      0.14      0.26      0.01         0.01
  YS02001932YS02001929        0.10      0.10      0.14      0.01         0.01
  YS02001935YS02001932        0.01      0.01      0.06      0.01         0.01
  YS02001920YS02001918        0.58      0.58      0.60      0.01         0.01
  YS02003290YS02003287        0.94      0.94      1.04      0.01         0.01
  YS02003294YS02003290        0.95      0.95      1.06      0.01         0.01
  YS02003297YS02003294        1.05      1.05      1.05      0.13         0.13
  YS02003275YS02003272        0.88      0.91      0.88      1.00         0.87
  YS02003300YS02003297        0.98      0.98      1.03      0.01         0.01
  YS02003303YS02003300        0.94      0.94      1.01      0.01         0.01
  YS02005550YS02005551        0.01      0.05      0.01      0.11         0.01
  YS02005568YS02005569        0.01      0.09      0.01      0.24         0.01
  YS02005582YS02005583        0.32      0.60      0.32      0.72         0.32
  YS02003272YS02003269        0.01      0.90      0.01      1.00         0.01
  YS02003278YS02003275        0.93      1.05      0.93      1.24         0.93
  YS02003281YS02003278        0.98      0.98      1.04      0.93         0.92
  YS02003284YS02003281        0.98      0.98      1.05      0.55         0.39
  YS02003287YS02003284        1.02      1.02      1.07      0.01         0.01
  YS02003306YS02003303        0.92      0.92      0.98      0.54         0.55
  YS02003309YS02003306        0.88      0.88      0.92      0.01         0.01
  YS02005600YS02005375        0.25      0.25      0.26      0.26         0.25
  YS02005384YS02005593        0.01      0.93      0.01      0.97         0.01
  YS02005595YS02005596        0.36      0.37      0.36      0.39         0.36
  YS02005612YS02005613        0.16      0.16      0.87      0.37         0.01
  YS02005549YS02005547        0.01      0.01      0.01      0.01         0.01
  YS02005553YS02005554        0.01      0.01      0.01      0.23         0.01
  YS02005556YS02005557        0.01      0.01      0.01      0.27         0.01
  YS02005562YS02005563        0.01      0.01      0.01      0.20         0.01
  YS02005571YS02005572        0.01      0.24      0.01      0.40         0.01
  YS02005576YS02005577        0.01      0.01      0.01      0.10         0.01
  YS02005579YS02005580        0.27      0.46      0.27      0.65         0.27
  YS02005580YS02005581        0.24      0.27      0.24      0.29         0.24
  YS02005583YS02005584        0.32      0.32      0.33      0.33         0.32
  YS02006553YS02006556        0.78      0.78      0.84      0.01         0.01
  YS02006556YS02006558        0.81      0.81      0.84      0.01         0.01
  YSB6556YSB1171              0.90      0.90      1.11      0.01         0.01
  YSB1202YSB1205              1.11      1.11      1.19      0.01         0.01
  YSB1205YSB1209              1.18      1.19      1.19      0.59         0.53
  YSB1209YSB1212              1.14      1.19      1.14      1.46         1.14
  YSB1212YSB1215              1.14      1.14      1.18      0.38         0.36
  YSB1215YSB1218              1.18      1.18      1.20      0.42         0.41
  YSB1218YSB1221              1.13      1.13      1.23      0.98         0.99
  YSB1221YSB1224              1.23      1.23      1.26      1.13         1.12
  YSB1224YSB1105              0.86      1.38      0.86      1.65         0.86
  YSB1189YSB1186              0.69      0.69      0.76      0.21         0.21
  YS02001907YS02006553        0.90      0.90      0.92      0.01         0.01
  YS02006562YS02006558        0.71      0.71      0.84      0.01         0.01
  YS02006558YS02006561        0.62      0.78      0.62      0.87         0.62
  YS6184YS6187                0.19      0.19      0.21      0.13         0.13
  YS6360YS6363                0.16      0.21      0.16      0.80         0.15
  YS6354YS6360                0.27      0.27      0.28      0.27         0.25
  YS6351YS6354                0.27      0.30      0.27      0.45         0.27
  YS6350YS6351                0.30      0.33      0.30      0.81         0.30
  YS6348YS6350                0.31      0.31      0.33      0.29         0.27
  YS6344YS6348                0.32      0.32      0.38      0.01         0.01
  YS6363YS6132                0.16      0.16      0.33      0.01         0.01
  YS6137YS6132                0.24      0.24      0.41      0.01         0.01
  YS6189YS6137                0.24      0.24      0.27      0.96         0.01
  YS6187YS6189                0.19      0.19      0.21      0.35         0.01
  YS6179YS6184                0.18      0.18      0.19      0.01         0.01
  YS6176YS6179                0.12      0.12      0.18      0.01         0.01
  YS6171YS6176                0.14      0.14      0.18      0.03         0.04
  YS6168YS6171                0.13      0.13      0.14      0.11         0.11
  YS6164YS6168                0.10      0.10      0.13      0.01         0.01
  YS6162YS6164                0.13      0.13      0.14      0.01         0.01
  YS6132YS6404                0.02      0.21      0.02      0.36         0.02
  YSB1106YSB1105              0.01      0.22      0.01      0.26         0.01
  YSB1109YSB1106              0.22      0.28      0.22      0.40         0.22
  YSB1112YSB1109              0.28      0.28      0.28      0.31         0.28
  YSB1115YSB1112              0.26      0.26      0.28      0.12         0.12
  YSB1118YSB1115              0.29      0.30      0.29      0.32         0.29
  YSB1121YSB1118              0.30      0.32      0.30      0.41         0.30
  YSB1124YSB1121              0.29      0.29      0.32      0.01         0.01
  YSB1105YSB1103              0.01      0.01      0.20      0.20         0.01
  YS02001745YS02001748        0.01      0.01      0.01      0.01         0.01
  YS02001748YS02001751        0.02      0.02      0.05      0.01         0.01
  YS02001751YS02001754        0.05      0.05      0.12      0.01         0.01
  YS02001754YS02001757        0.14      0.14      0.23      0.01         0.01
  YS02001882YS02001884        0.67      0.67      0.68      0.01         0.01
  YS02001884YS02001887        0.70      0.70      0.70      0.01         0.01
  YS02001890YS02001895        0.66      0.66      0.74      0.01         0.01
  YS02001895YS02001898        0.66      0.66      0.66      0.01         0.01
  YS02001898YS02001901        0.67      0.67      0.70      0.01         0.01
  YS02001901YS02001904        0.69      0.69      0.70      0.01         0.01
  YS02001904YS02001907        0.69      0.69      0.84      0.01         0.01
  YS02001887YS02001890        0.72      0.72      0.72      0.22         0.01
  YS02004309YS02004307        0.21      0.87      0.21      0.87         0.21
  YS02004319YS02004316        0.41      0.41      0.43      0.01         0.01
  YS02005376YS02005378        1.05      1.05      1.50      0.01         0.01
  YS02005378YS02005381        1.21      1.21      1.50      0.19         0.01
  YS02005381YS02005384        0.93      0.93      1.21      1.34         0.01
  YS02005598YS02005374        0.27      0.27      0.28      0.28         0.27
  YS02005602YS02005603        0.23      0.46      0.23      0.68         0.23
  YS02005603YS02005607        0.23      0.23      0.24      0.24         0.23
  YS02005618YS02005619        0.01      0.01      0.01      0.03         0.01
  YS02005621YS02005622        0.01      0.02      0.01      0.08         0.01
  YS02005624YS02005625        0.01      0.01      0.27      0.05         0.01
  YS02005630YS02005631        0.01      0.06      0.01      0.11         0.01
  YS02005633YS02005634        0.01      0.05      0.01      0.08         0.01
  YS02005636YS02005637        0.01      0.09      0.01      0.13         0.01
  YS02005639YS02005640        0.01      0.07      0.01      0.10         0.01
  YS02005627YS02005628        0.01      0.06      0.01      0.28         0.01
  YS02005644YS02005645        0.01      0.17      0.01      0.20         0.01
  YS02005650YS02005651        0.01      0.16      0.01      0.25         0.01
  YS02005653YS02005654        0.14      0.14      0.14      0.14         0.13
  YS02005654YS02005655        0.01      0.14      0.01      0.24         0.01
  YS02005658YS02005659        0.01      0.08      0.01      0.12         0.01
  YS02005661YS02005662        0.01      0.14      0.01      0.25         0.01
  YS02005664YS02005665        0.01      0.14      0.01      0.50         0.01
  YS02005667YS02005668        0.01      0.01      0.59      0.18         0.01
  YS02005647YS02005648        0.01      0.32      0.01      0.44         0.01
  YS02004312YS02004309        0.70      0.70      0.87      0.01         0.01
  YS02004314YS02004312        0.44      0.44      0.70      0.01         0.01
  YS02004316YS02004314        0.43      0.43      0.44      0.38         0.38
  YS02004320YS02004319        0.01      0.01      0.34      0.01         0.01
  YS6404YS6401                0.01      0.02      0.01      0.75         0.01
  YSB1132YSB1135              0.69      0.69      0.72      0.01         0.01
  YSB1135YSB1138              0.72      0.72      0.74      0.01         0.01
  YSB1138YSB1141              0.74      0.74      0.79      0.46         0.46
  YSB1141YSB1145              0.78      0.78      0.79      0.45         0.42
  YSB1148YSB1151              0.83      0.83      0.93      0.01         0.01
  YSB1151YSB1154              0.89      0.89      0.95      0.01         0.01
  YSB1154YSB6556              0.90      0.90      0.95      0.48         0.01
  YSB1128YSB1132              0.67      0.67      0.69      0.01         0.01
  YSB1145YSB1148              0.79      0.79      0.83      0.01         0.01
  YSB1198YSB1195              0.32      0.32      0.63      0.01         0.01
  YSB1195YSB1192              0.63      0.63      0.67      0.01         0.01
  YSB1192YSB1189              0.67      0.67      0.69      0.01         0.01
  YSB1186YSB1183              0.72      0.72      0.78      0.01         0.01
  YSB1183YSB1180              0.78      0.78      0.81      0.25         0.26
  YSB1180YSB1177              0.81      0.81      0.93      0.01         0.01
  YSB1177YSB1174              0.93      0.93      0.99      0.26         0.27
  YSB1174YSB1171              0.92      0.92      1.05      0.21         0.21
  YSB1171HS02004479           0.83      0.83      0.95      0.01         0.01
  HS02003001HS02003166        0.01      0.01      0.08      0.01         0.01
  YS02004307HS02004052        0.01      0.01      0.24      0.01         0.01
  HS02004881HS02006253        0.74      0.74      1.02      0.01         0.01
  WS0200404049WS6136          0.22      0.22      0.33      0.01         0.01
  HS02003125WS02003215        1.00      1.00      1.08      0.01         0.01
  YS02001793JiankangQianchi        0.01      0.01      2.03      0.01         0.01
  YS02001757CaochengTiaoxuchi        0.22      0.23      0.60      0.15         0.13
  WS02004041WS6409            0.80      0.80      0.85      0.85         0.80
  WSF200WS02003060            0.27      0.27      0.55      0.01         0.01
  HS02004053WS02004407        0.24      0.24      0.84      0.01         0.01
  HS02003036HS02003028        0.25      0.25      0.36      0.01         0.01
  
  
  ***************
  Pumping Summary
  ***************
  
  ---------------------------------------------------------------------------------------------------------
                                                  Min       Avg       Max     Total     Power    % Time Off
                        Percent   Number of      Flow      Flow      Flow    Volume     Usage    Pump Curve
  Pump                 Utilized   Start-Ups       LPS       LPS       LPS  10^6 ltr     Kw-hr    Low   High
  ---------------------------------------------------------------------------------------------------------
  CaochengSewagePump1     57.97           1      0.00    200.00    200.00     0.850      6.76    0.0    0.0
  CaochengSewagePump2     42.37           1      0.00    200.00    200.00     0.621      5.10    0.0    0.0
  CaochengRainPump1       39.39           1      0.00    683.00    683.00     1.973      3.26    0.0   32.3
  CaochengRainPump2       34.00           1      0.00    683.00    683.00     1.703      2.67    0.0   37.5
  JiankangSewagePump      58.78           1      0.00    300.00    300.00     1.293     21.17    0.0    0.0
  JiankangRainPump1       33.19           3      0.00   1000.00   1000.00     2.434     17.01    0.0    0.0
  JiankangRainPump2        0.00           0      0.00      0.00      0.00     0.000      0.00    0.0    0.0
  XierchiSewagePump1      91.81           1      0.00     95.00     95.00     0.640      3.95    0.0    0.0
  XierchiSewagePump2      76.23           1      0.00     95.00     95.00     0.531      3.11    0.0    0.0
  XierchiSewagePump3       0.00           0      0.00      0.00      0.00     0.000      0.00    0.0    0.0
  XierchiSewagePump4       0.00           0      0.00      0.00      0.00     0.000      0.00    0.0    0.0
  

  Analysis begun on:  Fri Jul 29 19:24:35 2022
  Analysis ended on:  Fri Jul 29 19:56:10 2022
  Total elapsed time: 00:31:35