
  EPA STORM WATER MANAGEMENT MODEL - VERSION 5.1 (Build 5.3.0.dev0)
  --------------------------------------------------------------

  WARNING 04: minimum elevation drop used for Conduit WS02004404WS02004405
  WARNING 03: negative offset ignored for Link YS02001904YS02001907
  
  *********************************************************
  NOTE: The summary statistics displayed in this report are
  based on results found at every computational time step,  
  not just on results from each reporting time step.
  *********************************************************
  
  ****************
  Analysis Options
  ****************
  Flow Units ............... LPS
  Process Models:
    Rainfall/Runoff ........ YES
    RDII ................... NO
    Snowmelt ............... NO
    Groundwater ............ NO
    Flow Routing ........... YES
    Ponding Allowed ........ NO
    Water Quality .......... NO
  Infiltration Method ...... HORTON
  Flow Routing Method ...... DYNWAVE
  Surcharge Method ......... EXTRAN
  Starting Date ............ 03/31/2017 00:00:00
  Ending Date .............. 03/31/2017 03:00:00
  Antecedent Dry Days ...... 8.0
  Report Time Step ......... 00:00:30
  Wet Time Step ............ 00:01:00
  Dry Time Step ............ 00:01:00
  Routing Time Step ........ 30.00 sec
  Variable Time Step ....... YES
  Maximum Trials ........... 8
  Number of Threads ........ 6
  Head Tolerance ........... 0.001500 m
  
  
  **************************        Volume         Depth
  Runoff Quantity Continuity     hectare-m            mm
  **************************     ---------       -------
  Total Precipitation ......        10.619        90.112
  Evaporation Loss .........         0.000         0.000
  Infiltration Loss ........         0.633         5.374
  Surface Runoff ...........         8.254        70.044
  LID Drainage .............         0.612         5.192
  Final Storage ............         1.140         9.674
  Continuity Error (%) .....        -0.190
  
  
  **************************        Volume        Volume
  Flow Routing Continuity        hectare-m      10^6 ltr
  **************************     ---------     ---------
  Dry Weather Inflow .......         0.171         1.708
  Wet Weather Inflow .......         8.834        88.343
  Groundwater Inflow .......         0.000         0.000
  RDII Inflow ..............         0.000         0.000
  External Inflow ..........         0.033         0.330
  External Outflow .........         4.834        48.342
  Flooding Loss ............         3.959        39.590
  Evaporation Loss .........         0.000         0.000
  Exfiltration Loss ........         0.000         0.000
  Initial Stored Volume ....         0.303         3.031
  Final Stored Volume ......         0.577         5.769
  Continuity Error (%) .....        -0.311
  
  
  *************************
  Highest Continuity Errors
  *************************
  Node WS02005193 (58.05%)
  Node YS02001884 (28.90%)
  Node YS02001774 (13.14%)
  Node YS02004320 (6.70%)
  Node HS02003116 (5.61%)
  
  
  ***************************
  Time-Step Critical Elements
  ***************************
  Link YS02005655YS02005657 (45.21%)
  Link WS02006252WS02006251 (21.26%)
  Link WS02004041WS6409 (12.59%)
  Link WS02006280WS02006229 (2.62%)
  Link WS02003073WS02003076 (2.22%)
  
  
  ********************************
  Highest Flow Instability Indexes
  ********************************
  Link WS02006238WS02006235 (77)
  Link WS02003215WS02003116 (73)
  Link WS02003200WS02003201 (71)
  Link WS02003122WS02003187 (69)
  Link WS02004404WS02004405 (69)
  
  
  *************************
  Routing Time Step Summary
  *************************
  Minimum Time Step           :     0.50 sec
  Average Time Step           :     0.96 sec
  Maximum Time Step           :    30.00 sec
  Percent in Steady State     :     0.00
  Average Iterations per Step :     6.53
  Percent Not Converging      :    37.13
  
  
  ***************************
  Subcatchment Runoff Summary
  ***************************
  
  ------------------------------------------------------------------------------------------------------------------------------
                            Total      Total      Total      Total     Imperv       Perv      Total       Total     Peak  Runoff
                           Precip      Runon       Evap      Infil     Runoff     Runoff     Runoff      Runoff   Runoff   Coeff
  Subcatchment                 mm         mm         mm         mm         mm         mm         mm    10^6 ltr      LPS
  ------------------------------------------------------------------------------------------------------------------------------
  sub0                      90.11       0.00       0.00       0.73      81.50       5.26      86.76        0.07    54.75   0.963
  sub1                      90.11       0.00       0.00       5.81      58.42       6.15      73.23        0.49   300.81   0.813
  sub2                      90.11       0.00       0.00       6.38      45.85      20.33      71.58        0.67   338.98   0.794
  sub3                      90.11       0.00       0.00       5.65      47.58      19.83      71.25        1.60   754.43   0.791
  sub4                      90.11       0.00       0.00       3.19      66.37       6.93      77.10        1.61   829.15   0.856
  sub5                      90.11       0.00       0.00       6.32      57.75       3.74      71.65        0.81   495.77   0.795
  sub6                      90.11       0.00       0.00       5.32      61.25       3.97      73.58        1.90  1119.92   0.817
  sub7                      90.11       0.00       0.00       2.45      73.01       6.18      81.97        0.28   193.73   0.910
  sub8                      90.11       0.00       0.00       1.68      75.81       6.42      83.59        0.53   363.27   0.928
  sub9                      90.11       0.00       0.00       2.00      74.48       6.31      82.73        0.40   268.22   0.918
  sub10                     90.11       0.00       0.00       4.40      65.12       4.86      76.51        0.84   538.23   0.849
  sub11                     90.11       0.00       0.00       3.55      68.89       5.14      78.98        0.92   621.07   0.877
  sub12                     90.11       0.00       0.00       6.62      55.32       7.04      72.24        0.63   437.34   0.802
  sub13                     90.11       0.00       0.00       4.28      54.77      22.60      78.88        0.94   569.03   0.875
  sub14                     90.11       0.00       0.00       3.41      68.87       5.83      79.24        0.75   498.03   0.879
  sub15                     90.11       0.00       0.00       6.38      49.35      17.16      73.20        1.26   742.95   0.812
  sub16                     90.11       0.00       0.00       6.07      49.57      20.08      75.16        0.79   509.62   0.834
  sub17                     90.11       0.00       0.00       7.95      43.50      16.90      70.05        0.60   374.61   0.777
  sub18                     90.11       0.00       0.00       2.91      71.36       6.04      81.02        0.64   461.09   0.899
  sub19                     90.11       0.00       0.00       7.81      44.32      16.43      70.26        0.22   138.12   0.780
  sub20                     90.11       0.00       0.00      12.15      34.10       2.89      57.60        0.40   223.88   0.639
  sub21                     90.11       0.00       0.00       3.91      66.25       7.70      78.90        0.40   285.90   0.876
  sub22                     90.11       0.00       0.00       5.42      46.64      27.37      76.06        4.81  2720.99   0.844
  sub23                     90.11       0.00       0.00       5.69      48.80      23.00      75.72        3.61  2169.86   0.840
  sub24                     90.11       0.00       0.00       4.65      62.50       8.64      77.16        2.77  1932.12   0.856
  sub25                     90.11       0.00       0.00       0.73      81.63       5.27      86.90        1.13   888.22   0.964
  sub26                     90.11       0.00       0.00       7.06      50.06      13.39      72.55        1.03   761.93   0.805
  sub27                     90.11       0.00       0.00       4.19      65.72       5.57      77.26        1.12   724.19   0.857
  sub28                     90.11       0.00       0.00       4.10      66.40       4.96      77.33        1.21   782.62   0.858
  sub29                     90.11       0.00       0.00       5.48      60.19       4.50      73.17        1.18   682.98   0.812
  sub30                     90.11       0.00       0.00       4.50      65.54       4.88      77.13        1.74  1248.77   0.856
  sub31                     90.11       0.00       0.00       6.20      55.68       9.68      73.85        1.57  1117.49   0.819
  sub32                     90.11       0.00       0.00       5.18      62.50       4.66      75.11        1.50  1017.19   0.834
  sub33                     90.11       0.00       0.00       4.71      62.87       8.00      77.17        1.41  1021.15   0.856
  sub34                     90.11       0.00       0.00       7.43      37.66      30.67      73.48        1.64  1039.57   0.815
  sub35                     90.11       0.00       0.00       4.24      67.26       5.01      78.49        0.27   225.05   0.871
  sub36                     90.11       0.00       0.00       6.50      52.83      12.61      73.74        0.64   464.86   0.818
  sub37                     90.11       0.00       0.00       6.24      46.69      24.90      76.31        0.58   421.86   0.847
  sub38                     90.11       0.00       0.00       6.86      46.47      21.04      74.33        1.41  1047.68   0.825
  sub39                     90.11       0.00       0.00       4.90      64.28       4.79      76.51        0.81   620.70   0.849
  sub40                     90.11       0.00       0.00       3.54      69.89       5.20      80.04        0.93   731.55   0.888
  sub41                     90.11       0.00       0.00       4.22      63.81      10.33      79.00        1.52  1143.94   0.877
  sub42                     90.11       0.00       0.00       3.08      71.28       6.03      81.25        0.82   634.46   0.902
  sub43                     90.11       0.00       0.00       3.99      54.19      27.09      81.29        0.66   443.31   0.902
  sub44                     90.11       0.00       0.00       5.98      59.30       3.84      72.70        0.82   522.50   0.807
  sub45                     90.11       0.00       0.00       6.89      52.57       9.09      71.48        1.31   843.42   0.793
  sub46                     90.11       0.00       0.00       7.60      30.23      40.74      73.54        0.51   288.68   0.816
  sub47                     90.11       0.00       0.00       6.50      57.22       4.27      71.85        0.55   366.50   0.797
  sub48                     90.11       0.00       0.00       2.74      71.89       6.09      81.27        0.62   434.57   0.902
  sub49                     90.11       0.00       0.00       5.36      61.56       4.59      74.43        0.68   444.21   0.826
  sub50                     90.11       0.00       0.00       4.49      65.09       4.86      76.63        0.54   357.14   0.850
  sub51                     90.11       0.00       0.00       2.92      71.74       5.35      80.91        0.38   273.88   0.898
  sub52                     90.11       0.00       0.00       5.47      61.41       3.97      74.00        0.80   518.87   0.821
  sub53                     90.11       0.00       0.00       4.73      64.33       4.80      76.24        0.77   527.82   0.846
  sub54                     90.11       0.00       0.00       6.03      58.84       3.81      72.30        0.43   263.77   0.802
  sub55                     90.11       0.00       0.00       3.30      69.52       5.19      79.22        0.63   410.79   0.879
  sub56                     90.11       0.00       0.00       3.30      64.22      12.39      79.15        1.12   650.79   0.878
  sub57                     90.11       0.00       0.00       3.25      59.38      21.18      80.56        0.52   307.39   0.894
  sub58                     90.11       0.00       0.00       8.63      21.84      41.17      65.74        2.43   989.48   0.729
  sub59                     90.11       0.00       0.00       9.16      18.32      38.29      59.75        1.37   483.49   0.663
  sub60                     90.11       0.00       0.00       3.60      67.18       7.80      79.36        1.04   714.61   0.881
  sub61                     90.11       0.00       0.00       5.46      58.15      10.06      75.28        1.38   931.55   0.835
  sub62                     90.11       0.00       0.00       4.43      64.94       4.85      76.35        2.09  1321.19   0.847
  sub67                     90.11       0.00       0.00       6.76      55.80       4.16      70.80        1.32   817.42   0.786
  sub68                     90.11       0.00       0.00       3.82      65.28       9.00      78.73        2.17  1421.55   0.874
  sub71                     90.11       0.00       0.00       3.25      68.96       5.16      78.51        2.05  1226.66   0.871
  sub72                     90.11       0.00       0.00       4.76      62.76       4.08      74.17        1.02   560.64   0.823
  sub73                     90.11       0.00       0.00       2.20      69.37      15.59      84.96        0.08    65.29   0.943
  sub74                     90.11       0.00       0.00       3.36      59.69      23.42      83.11        0.13   100.08   0.922
  sub75                     90.11       0.00       0.00       3.46      60.42      21.71      82.79        0.18   140.35   0.919
  sub76                     90.11       0.00       0.00       3.87      64.29      11.96      80.08        0.20   147.11   0.889
  sub77                     90.11       0.00       0.00       3.20      67.42      11.73      81.86        0.13   100.52   0.908
  sub78                     90.11       0.00       0.00       7.63      51.33       6.54      69.64        0.19   129.31   0.773
  sub79                     90.11       0.00       0.00       5.58      55.13      14.59      75.86        0.20   135.20   0.842
  sub80                     90.11       0.00       0.00       4.28      55.97      22.93      80.62        0.24   171.36   0.895
  sub81                     90.11       0.00       0.00       4.86      51.92      25.07      79.11        0.24   165.04   0.878
  sub82                     90.11       0.00       0.00       4.99      51.59      25.04      79.02        0.24   166.59   0.877
  sub83                     90.11       0.00       0.00       5.36      49.95      25.38      78.32        0.26   187.63   0.869
  sub84                     90.11       0.00       0.00       4.97      52.42      23.18      78.38        0.43   284.01   0.870
  sub85                     90.11       0.00       0.00       7.38      48.53      12.86      71.12        0.32   209.43   0.789
  sub86                     90.11       0.00       0.00       4.05      59.83      17.54      80.05        0.39   271.59   0.888
  sub87                     90.11       0.00       0.00       3.67      56.94      25.32      82.26        0.25   175.57   0.913
  sub88                     90.11       0.00       0.00       3.57      57.85      24.69      82.54        0.25   182.05   0.916
  sub89                     90.11       0.00       0.00       3.25      60.63      22.79      83.42        0.22   169.40   0.926
  sub90                     90.11       0.00       0.00       2.83      64.03      19.85      83.89        0.21   156.66   0.931
  sub91                     90.11       0.00       0.00       2.83      64.27      20.04      84.32        0.15   121.29   0.936
  sub92                     90.11       0.00       0.00       3.25      60.88      23.07      83.95        0.13   103.32   0.932
  sub93                     90.11       0.00       0.00       3.25      60.91      23.10      84.00        0.15   126.05   0.932
  sub94                     90.11       0.00       0.00       3.25      60.76      22.93      83.69        0.18   142.74   0.929
  sub95                     90.11       0.00       0.00       3.04      62.56      21.54      84.10        0.13   101.70   0.933
  sub96                     90.11       0.00       0.00       2.31      68.91      16.52      85.43        0.16   136.77   0.948
  sub97                     90.11       0.00       0.00       6.88      33.37      43.77      78.38        0.18   146.15   0.870
  sub98                     90.11       0.00       0.00       7.71      24.44      50.73      75.62        0.25   147.50   0.839
  sub99                     90.11       0.00       0.00       8.29      18.53      53.36      71.89        0.25   118.70   0.798
  sub100                    90.11       0.00       0.00       8.29      18.49      50.87      69.36        0.24   101.69   0.770
  sub101                    90.11       0.00       0.00       8.29      18.48      50.61      69.09        0.23    96.60   0.767
  sub102                    90.11       0.00       0.00       7.97      21.05      46.83      67.89        0.20    82.98   0.753
  sub103                    90.11       0.00       0.00       8.18      19.30      46.94      66.24        0.31   121.53   0.735
  sub104                    90.11       0.00       0.00       8.18      19.29      46.40      65.69        0.34   131.44   0.729
  sub105                    90.11       0.00       0.00       8.50      16.69      48.11      64.80        0.37   134.86   0.719
  sub106                    90.11       0.00       0.00       8.29      18.46      49.08      67.54        0.35   136.50   0.750
  sub107                    90.11       0.00       0.00       8.70      16.46      51.42      68.49        0.48   199.24   0.760
  sub108                    90.11       0.00       0.00       8.75      15.70      55.06      71.23        0.66   311.17   0.790
  sub109                    90.11       0.00       0.00       7.78      29.25      41.32      73.35        1.05   590.84   0.814
  sub110                    90.11       0.00       0.00       5.79      56.71      10.53      74.79        1.57  1096.10   0.830
  sub111                    90.11       0.00       0.00       6.05      52.72      15.52      74.95        0.64   445.99   0.832
  sub112                    90.11       0.00       0.00       4.75      59.53      13.34      77.88        0.61   442.14   0.864
  sub113                    90.11       0.00       0.00       2.63      70.61       9.77      82.57        0.57   423.92   0.916
  sub114                    90.11       0.00       0.00       2.58      71.25       9.07      82.60        0.55   407.71   0.917
  sub115                    90.11       0.00       0.00       3.61      67.54       7.85      79.80        0.59   428.31   0.886
  sub116                    90.11       0.00       0.00       6.65      44.60      24.23      74.25        0.14    87.25   0.824
  sub117                    90.11       0.00       0.00       7.13      42.71      24.35      73.35        0.34   217.53   0.814
  

  ***********************
  LID Performance Summary
  ***********************

  --------------------------------------------------------------------------------------------------------------------
                                         Total      Evap     Infil   Surface    Drain    Initial     Final  Continuity
                                        Inflow      Loss      Loss   Outflow   Outflow   Storage   Storage       Error
  Subcatchment      LID Control             mm        mm        mm        mm        mm        mm        mm           %
  --------------------------------------------------------------------------------------------------------------------
  sub1              PermeablePavement     90.11      0.00     20.50      0.00     35.98      0.00     34.17       -0.60
  sub2              PermeablePavement     90.11      0.00     20.50      0.00     35.98      0.00     34.17       -0.60
  sub3              PermeablePavement     90.11      0.00     20.50      0.00     35.98      0.00     34.17       -0.60
  sub4              PermeablePavement     90.11      0.00     20.50      0.00     35.98      0.00     34.17       -0.60
  sub5              PermeablePavement     90.11      0.00     20.50      0.00     35.98      0.00     34.17       -0.60
  sub6              PermeablePavement     90.11      0.00     20.50      0.00     35.98      0.00     34.17       -0.60
  sub7              PermeablePavement     90.11      0.00     20.50      0.00     35.98      0.00     34.17       -0.60
  sub8              PermeablePavement     90.11      0.00     20.50      0.00     35.98      0.00     34.17       -0.60
  sub9              PermeablePavement     90.11      0.00     20.50      0.00     35.98      0.00     34.17       -0.60
  sub10             PermeablePavement     90.11      0.00     20.50      0.00     35.98      0.00     34.17       -0.60
  sub11             PermeablePavement     90.11      0.00     20.50      0.00     35.98      0.00     34.17       -0.60
  sub12             PermeablePavement     90.11      0.00     20.50      0.00     35.98      0.00     34.17       -0.60
  sub13             PermeablePavement     90.11      0.00     20.50      0.00     35.98      0.00     34.17       -0.60
  sub14             PermeablePavement     90.11      0.00     20.50      0.00     35.98      0.00     34.17       -0.60
  sub15             PermeablePavement     90.11      0.00     20.50      0.00     35.98      0.00     34.17       -0.60
  sub16             PermeablePavement     90.11      0.00     20.50      0.00     35.98      0.00     34.17       -0.60
  sub17             PermeablePavement     90.11      0.00     20.50      0.00     35.98      0.00     34.17       -0.60
  sub18             PermeablePavement     90.11      0.00     20.50      0.00     35.98      0.00     34.17       -0.60
  sub19             PermeablePavement     90.11      0.00     20.50      0.00     35.98      0.00     34.17       -0.60
  sub20             PermeablePavement     90.11      0.00     20.50      0.00     35.98      0.00     34.17       -0.60
  sub20             PermeablePavement     90.11      0.00     20.50      0.00     35.98      0.00     34.17       -0.60
  sub21             PermeablePavement     90.11      0.00     20.50      0.00     35.98      0.00     34.17       -0.60
  sub22             PermeablePavement     90.11      0.00     20.50      0.00     35.98      0.00     34.17       -0.60
  sub23             PermeablePavement     90.11      0.00     20.50      0.00     35.98      0.00     34.17       -0.60
  sub24             PermeablePavement     90.11      0.00     20.50      0.00     35.98      0.00     34.17       -0.60
  sub26             PermeablePavement     90.11      0.00     20.50      0.00     35.98      0.00     34.17       -0.60
  sub27             PermeablePavement     90.11      0.00     20.50      0.00     35.98      0.00     34.17       -0.60
  sub28             PermeablePavement     90.11      0.00     20.50      0.00     35.98      0.00     34.17       -0.60
  sub29             PermeablePavement     90.11      0.00     20.50      0.00     35.98      0.00     34.17       -0.60
  sub30             PermeablePavement     90.11      0.00     20.50      0.00     35.98      0.00     34.17       -0.60
  sub31             PermeablePavement     90.11      0.00     20.50      0.00     35.98      0.00     34.17       -0.60
  sub32             PermeablePavement     90.11      0.00     20.50      0.00     35.98      0.00     34.17       -0.60
  sub33             PermeablePavement     90.11      0.00     20.50      0.00     35.98      0.00     34.17       -0.60
  sub34             PermeablePavement     90.11      0.00     20.50      0.00     35.98      0.00     34.17       -0.60
  sub35             PermeablePavement     90.11      0.00     20.50      0.00     35.98      0.00     34.17       -0.60
  sub36             PermeablePavement     90.11      0.00     20.50      0.00     35.98      0.00     34.17       -0.60
  sub37             PermeablePavement     90.11      0.00     20.50      0.00     35.98      0.00     34.17       -0.60
  sub38             PermeablePavement     90.11      0.00     20.50      0.00     35.98      0.00     34.17       -0.60
  sub39             PermeablePavement     90.11      0.00     20.50      0.00     35.98      0.00     34.17       -0.60
  sub40             PermeablePavement     90.11      0.00     20.50      0.00     35.98      0.00     34.17       -0.60
  sub41             PermeablePavement     90.11      0.00     20.50      0.00     35.98      0.00     34.17       -0.60
  sub42             PermeablePavement     90.11      0.00     20.50      0.00     35.98      0.00     34.17       -0.60
  sub44             PermeablePavement     90.11      0.00     20.50      0.00     35.98      0.00     34.17       -0.60
  sub45             PermeablePavement     90.11      0.00     20.50      0.00     35.98      0.00     34.17       -0.60
  sub46             PermeablePavement     90.11      0.00     20.50      0.00     35.98      0.00     34.17       -0.60
  sub47             PermeablePavement     90.11      0.00     20.50      0.00     35.98      0.00     34.17       -0.60
  sub48             PermeablePavement     90.11      0.00     20.50      0.00     35.98      0.00     34.17       -0.60
  sub49             PermeablePavement     90.11      0.00     20.50      0.00     35.98      0.00     34.17       -0.60
  sub50             PermeablePavement     90.11      0.00     20.50      0.00     35.98      0.00     34.17       -0.60
  sub51             PermeablePavement     90.11      0.00     20.50      0.00     35.98      0.00     34.17       -0.60
  sub52             PermeablePavement     90.11      0.00     20.50      0.00     35.98      0.00     34.17       -0.60
  sub53             PermeablePavement     90.11      0.00     20.50      0.00     35.98      0.00     34.17       -0.60
  sub54             PermeablePavement     90.11      0.00     20.50      0.00     35.98      0.00     34.17       -0.60
  sub55             PermeablePavement     90.11      0.00     20.50      0.00     35.98      0.00     34.17       -0.60
  sub56             PermeablePavement     90.11      0.00     20.50      0.00     35.98      0.00     34.17       -0.60
  sub58             PermeablePavement     90.11      0.00     20.50      0.00     35.98      0.00     34.17       -0.60
  sub59             PermeablePavement     90.11      0.00     20.50      0.00     35.98      0.00     34.17       -0.60
  sub60             PermeablePavement     90.11      0.00     20.50      0.00     35.98      0.00     34.17       -0.60
  sub61             PermeablePavement     90.11      0.00     20.50      0.00     35.98      0.00     34.17       -0.60
  sub62             PermeablePavement     90.11      0.00     20.50      0.00     35.98      0.00     34.17       -0.60
  sub67             PermeablePavement     90.11      0.00     20.50      0.00     35.98      0.00     34.17       -0.60
  sub68             PermeablePavement     90.11      0.00     20.50      0.00     35.98      0.00     34.17       -0.60
  sub71             PermeablePavement     90.11      0.00     20.50      0.00     35.98      0.00     34.17       -0.60
  sub72             PermeablePavement     90.11      0.00     20.50      0.00     35.98      0.00     34.17       -0.60
  sub75             PermeablePavement     90.11      0.00     20.50      0.00     35.98      0.00     34.17       -0.60
  sub76             PermeablePavement     90.11      0.00     20.50      0.00     35.98      0.00     34.17       -0.60
  sub77             PermeablePavement     90.11      0.00     20.50      0.00     35.98      0.00     34.17       -0.60
  sub78             PermeablePavement     90.11      0.00     20.50      0.00     35.98      0.00     34.17       -0.60
  sub79             PermeablePavement     90.11      0.00     20.50      0.00     35.98      0.00     34.17       -0.60
  sub80             PermeablePavement     90.11      0.00     20.50      0.00     35.98      0.00     34.17       -0.60
  sub81             PermeablePavement     90.11      0.00     20.50      0.00     35.98      0.00     34.17       -0.60
  sub82             PermeablePavement     90.11      0.00     20.50      0.00     35.98      0.00     34.17       -0.60
  sub83             PermeablePavement     90.11      0.00     20.50      0.00     35.98      0.00     34.17       -0.60
  sub84             PermeablePavement     90.11      0.00     20.50      0.00     35.98      0.00     34.17       -0.60
  sub85             PermeablePavement     90.11      0.00     20.50      0.00     35.98      0.00     34.17       -0.60
  sub86             PermeablePavement     90.11      0.00     20.50      0.00     35.98      0.00     34.17       -0.60
  sub97             PermeablePavement     90.11      0.00     20.50      0.00     35.98      0.00     34.17       -0.60
  sub98             PermeablePavement     90.11      0.00     20.50      0.00     35.98      0.00     34.17       -0.60
  sub107            PermeablePavement     90.11      0.00     20.50      0.00     35.98      0.00     34.17       -0.60
  sub108            PermeablePavement     90.11      0.00     20.50      0.00     35.98      0.00     34.17       -0.60
  sub109            PermeablePavement     90.11      0.00     20.50      0.00     35.98      0.00     34.17       -0.60
  sub110            PermeablePavement     90.11      0.00     20.50      0.00     35.98      0.00     34.17       -0.60
  sub111            PermeablePavement     90.11      0.00     20.50      0.00     35.98      0.00     34.17       -0.60
  sub112            PermeablePavement     90.11      0.00     20.50      0.00     35.98      0.00     34.17       -0.60
  sub113            PermeablePavement     90.11      0.00     20.50      0.00     35.98      0.00     34.17       -0.60
  sub114            PermeablePavement     90.11      0.00     20.50      0.00     35.98      0.00     34.17       -0.60
  sub115            PermeablePavement     90.11      0.00     20.50      0.00     35.98      0.00     34.17       -0.60
  sub116            PermeablePavement     90.11      0.00     20.50      0.00     35.98      0.00     34.17       -0.60
  sub117            PermeablePavement     90.11      0.00     20.50      0.00     35.98      0.00     34.17       -0.60
  
  ******************
  Node Depth Summary
  ******************
  
  ---------------------------------------------------------------------------------
                                 Average  Maximum  Maximum  Time of Max    Reported
                                   Depth    Depth      HGL   Occurrence   Max Depth
  Node                 Type       Meters   Meters   Meters  days hr:min      Meters
  ---------------------------------------------------------------------------------
  WS02001211           JUNCTION     1.02     2.42     7.26     0  00:44        1.79
  WS02001212           JUNCTION     0.79     2.09     7.15     0  00:44        1.55
  WS02001213           JUNCTION     1.03     2.33     7.09     0  00:44        1.86
  WS02003069           JUNCTION     0.99     1.69     6.27     0  00:48        1.68
  WS02003072           JUNCTION     1.05     1.59     5.96     0  00:48        1.58
  WS02003073           JUNCTION     1.27     1.70     5.77     0  00:47        1.70
  WS02003076           JUNCTION     1.00     1.36     5.58     0  00:47        1.35
  WS02003060           JUNCTION     0.87     1.69     6.62     0  00:47        1.67
  WS02003066           JUNCTION     0.52     1.17     6.72     0  00:47        1.17
  WS02003059           JUNCTION     1.10     2.07     6.76     0  00:44        1.93
  WS02003115           JUNCTION     2.05     2.76     9.62     0  00:32        2.73
  WS02003116           JUNCTION     2.19     3.03     9.74     0  00:24        2.93
  WS02003118           JUNCTION     2.17     2.90     9.52     0  00:24        2.90
  WS02003215           JUNCTION     2.07     2.80     9.66     0  00:32        2.80
  WS02003110           JUNCTION     1.68     2.33     9.58     0  00:46        2.33
  WS02003111           JUNCTION     1.81     2.35     9.44     0  00:32        2.35
  WS02005155           JUNCTION     1.66     2.42     9.73     0  00:46        2.42
  WS02005154           JUNCTION     1.42     2.29     9.93     0  00:46        2.29
  WS02005193           JUNCTION     1.53     3.22    11.04     0  00:42        2.99
  WS02005196           JUNCTION     1.50     3.31    11.16     0  00:28        2.96
  WS02003067           JUNCTION     0.85     1.48     6.80     0  00:47        1.47
  WS02004401           JUNCTION     1.50     2.48     8.48     0  00:46        2.45
  WS02004402           JUNCTION     1.50     2.50     8.46     0  00:46        2.46
  WS02004403           JUNCTION     1.48     2.50     8.43     0  00:46        2.46
  WS02004404           JUNCTION     1.52     2.56     8.41     0  00:46        2.52
  WS02004406           JUNCTION     1.46     2.52     8.35     0  00:46        2.49
  WS02004409           JUNCTION     1.23     2.31     8.08     0  00:47        2.29
  WS02004410           JUNCTION     1.12     2.10     7.82     0  00:47        2.09
  WS02004411           JUNCTION     1.04     1.88     7.56     0  00:47        1.87
  WS02004412           JUNCTION     0.94     1.65     7.29     0  00:47        1.63
  WS02004413           JUNCTION     0.98     1.56     7.03     0  00:47        1.53
  WS02004405           JUNCTION     1.50     2.54     8.39     0  00:46        2.50
  WS02006109           JUNCTION     2.00     2.64     9.26     0  00:40        2.64
  WS02006110           JUNCTION     1.80     2.48     9.07     0  00:49        2.48
  WS02006111           JUNCTION     1.20     2.00     8.70     0  00:51        1.99
  WS02006112           JUNCTION     1.81     2.68     8.56     0  00:00        2.68
  WS02006113           JUNCTION     1.28     2.00     8.89     0  00:45        1.99
  WS02006115           JUNCTION     1.48     2.40     8.53     0  00:45        2.38
  WS02006116           JUNCTION     1.52     2.47     8.51     0  00:46        2.45
  WS02006230           JUNCTION     2.07     2.65     9.39     0  00:37        2.65
  WS02006231           JUNCTION     1.67     2.19     9.31     0  01:27        2.19
  WS02006232           JUNCTION     1.70     2.18     9.22     0  00:36        2.18
  WS02006234           JUNCTION     1.53     1.96     9.12     0  00:35        1.96
  WS02006235           JUNCTION     1.51     1.93     9.10     0  01:22        1.93
  WS02006238           JUNCTION     1.52     1.94     9.08     0  00:32        1.93
  WS02006240           JUNCTION     1.30     1.63     8.93     0  00:32        1.62
  WS02006242           JUNCTION     1.27     1.55     8.82     0  00:25        1.55
  WS02006243           JUNCTION     1.11     1.48     8.90     0  00:26        1.36
  WS02006245           JUNCTION     1.03     1.27     8.76     0  01:32        1.26
  WS02006247           JUNCTION     1.01     1.23     8.73     0  00:39        1.22
  WS02006248           JUNCTION     0.92     1.10     8.69     0  00:27        1.10
  WS02006249           JUNCTION     0.92     1.09     8.69     0  00:27        1.09
  WS02006239           JUNCTION     1.41     1.80     9.01     0  00:32        1.78
  WS02006251           JUNCTION     1.42     2.21     9.88     0  00:42        2.16
  WS02006252           JUNCTION     1.00     1.50     9.74     0  00:42        1.50
  WS02006253           JUNCTION     1.70     3.24    10.88     0  00:42        3.16
  WS02006256           JUNCTION     1.89     2.35     9.28     0  00:17        2.35
  WS02004138           JUNCTION     0.12     0.14     7.39     0  00:33        0.14
  WS02004139           JUNCTION     0.95     2.37     7.28     0  00:44        1.72
  WS02004407           JUNCTION     0.88     2.05     8.36     0  00:45        1.97
  WS02006228           JUNCTION     2.23     3.03     9.68     0  00:49        3.03
  WS02006229           JUNCTION     2.33     3.23     9.92     0  00:45        3.22
  WS02006280           JUNCTION     1.04     1.75    10.02     0  00:44        1.74
  WS02006284           JUNCTION     1.19     1.95    10.35     0  00:45        1.94
  WS02006287           JUNCTION     0.93     1.75    10.70     0  00:44        1.73
  WS02003091           JUNCTION     2.96     4.43    10.23     0  00:00        3.91
  WS02003203           JUNCTION     2.90     3.83     9.82     0  00:00        3.83
  WS6145               JUNCTION     0.42     2.33    10.43     0  00:47        2.32
  WS6147               JUNCTION     0.35     2.18    10.46     0  00:47        2.17
  WS6150               JUNCTION     0.34     2.16    10.49     0  00:46        2.13
  WS6152               JUNCTION     0.35     2.17    10.50     0  00:46        2.14
  WS6155               JUNCTION     0.31     2.10    10.50     0  00:45        2.10
  WS6156               JUNCTION     0.29     2.05    10.52     0  00:46        2.05
  WS6136               JUNCTION     0.37     1.90    10.85     0  00:46        1.90
  WS6140               JUNCTION     0.47     2.47    10.41     0  00:47        2.45
  WS6142               JUNCTION     0.42     2.34    10.42     0  00:47        2.33
  WS6325               JUNCTION     0.70     2.74    10.39     0  00:47        2.73
  WS6327               JUNCTION     0.55     2.59    10.40     0  00:47        2.56
  WS6329               JUNCTION     0.50     2.51    10.40     0  00:47        2.49
  WS6332               JUNCTION     0.42     2.52    10.55     0  00:45        2.34
  WS6158               JUNCTION     0.27     2.05    10.59     0  00:46        2.05
  WS6335               JUNCTION     0.42     2.59    10.66     0  00:45        2.37
  WS6338               JUNCTION     0.36     2.55    10.75     0  00:45        2.45
  WS6340               JUNCTION     0.32     2.50    10.84     0  00:45        2.50
  WS6342               JUNCTION     0.25     2.50    11.10     0  00:45        2.24
  WS6135               JUNCTION     0.85     2.89    10.39     0  00:47        2.88
  WS6396               JUNCTION     0.54     2.02     9.57     0  00:47        2.01
  WS6399               JUNCTION     0.33     1.37     8.80     0  00:47        1.36
  WS02003082           JUNCTION     1.41     1.93     7.00     0  00:48        1.93
  WS02003077           JUNCTION     0.49     0.84     5.85     0  00:47        0.84
  WS02003080           JUNCTION     0.92     1.31     6.24     0  00:47        1.30
  WS02003083           JUNCTION     1.81     2.41     7.44     0  00:47        2.40
  WS02003084           JUNCTION     1.96     2.60     7.70     0  00:50        2.59
  WS02003085           JUNCTION     2.04     2.72     7.89     0  00:51        2.72
  WS02003086           JUNCTION     2.29     3.02     8.23     0  00:47        3.02
  WS02003087           JUNCTION     2.57     3.36     8.57     0  00:50        3.35
  WS02003088           JUNCTION     2.77     4.14     9.43     0  00:00        4.07
  WS02003089           JUNCTION     2.90     4.34     9.80     0  00:00        4.02
  WS02003090           JUNCTION     3.12     4.12     9.55     0  00:00        4.05
  WS02003081           JUNCTION     1.15     1.61     6.65     0  00:49        1.60
  WS02003122           JUNCTION     2.36     3.11     9.48     0  00:52        3.10
  WS02003187           JUNCTION     2.38     3.11     9.44     0  00:23        3.11
  WS02003188           JUNCTION     2.35     2.97     9.23     0  00:23        2.97
  WS02003190           JUNCTION     2.33     2.84     9.04     0  00:24        2.84
  WS02003193           JUNCTION     2.32     2.85     9.09     0  00:23        2.85
  WS02003195           JUNCTION     2.35     2.93     9.18     0  00:23        2.93
  WS02003196           JUNCTION     2.47     3.13     9.31     0  00:46        3.13
  WS02003198           JUNCTION     2.51     3.23     9.41     0  00:46        3.23
  WS02003200           JUNCTION     2.28     2.99     9.42     0  00:30        2.93
  WS02003201           JUNCTION     2.55     3.22     9.36     0  00:30        3.22
  WS02003202           JUNCTION     2.70     4.17    10.23     0  00:00        3.48
  WS02004041           JUNCTION     0.68     0.98     5.34     0  00:48        0.98
  WSA6400              JUNCTION     1.19     2.42     8.26     0  00:47        2.41
  WS6400               JUNCTION     0.51     1.70     8.36     0  00:47        1.68
  WSF208               JUNCTION     0.88     1.95     8.04     0  00:47        1.93
  WSF207               JUNCTION     0.77     1.69     7.83     0  00:47        1.68
  WSF206               JUNCTION     0.85     1.74     7.67     0  00:47        1.73
  WSF205               JUNCTION     0.78     1.61     7.51     0  00:47        1.60
  WSF204               JUNCTION     1.30     2.17     7.32     0  00:47        2.16
  WSF203               JUNCTION     0.67     1.36     7.07     0  00:47        1.36
  WSF202               JUNCTION     0.58     1.20     6.92     0  00:47        1.19
  WSF201               JUNCTION     0.50     1.05     6.77     0  00:47        1.04
  WSF200               JUNCTION     0.66     1.45     6.69     0  00:47        1.45
  HS02004901           JUNCTION     0.77     1.42    11.24     0  00:40        1.42
  HS02004881           JUNCTION     0.61     2.15    11.18     0  00:42        1.89
  HS02004876           JUNCTION     0.74     2.16    11.19     0  00:42        2.14
  HS02004870           JUNCTION     0.64     2.10    11.39     0  00:42        2.04
  HS02004862           JUNCTION     0.65     2.00    11.38     0  00:42        2.00
  HS02004856           JUNCTION     0.67     2.07    11.50     0  00:42        2.07
  HS02004852           JUNCTION     0.62     2.12    11.63     0  00:42        2.00
  HS02004848           JUNCTION     0.60     2.07    11.67     0  00:42        1.93
  HS02004842           JUNCTION     0.91     2.22    11.49     0  00:42        2.22
  HS02004837           JUNCTION     0.62     2.04    11.62     0  00:41        1.92
  HS02004830           JUNCTION     0.70     2.03    11.50     0  00:42        1.99
  HS02004824           JUNCTION     0.75     2.01    11.41     0  00:42        2.01
  HS02004817           JUNCTION     1.23     2.44    11.29     0  00:42        2.41
  HS02004807           JUNCTION     0.90     1.92    11.09     0  00:42        1.92
  HS02004802           JUNCTION     0.91     1.81    10.93     0  00:44        1.80
  HS02004799           JUNCTION     1.01     1.76    10.97     0  00:41        1.76
  HS02004792           JUNCTION     0.81     1.60    11.12     0  00:38        1.60
  HS02004788           JUNCTION     0.61     1.42    11.32     0  00:40        1.38
  HS02004785           JUNCTION     0.65     1.49    11.39     0  00:40        1.37
  HS02004777           JUNCTION     0.78     1.48    11.28     0  00:40        1.46
  HS02004770           JUNCTION     0.76     1.42    11.25     0  00:40        1.42
  HS02004480           JUNCTION     0.90     1.67    10.91     0  00:42        1.64
  HS02004479           JUNCTION     0.94     1.69    10.90     0  00:42        1.68
  HS02004478           JUNCTION     0.79     1.59    10.82     0  00:44        1.58
  HS02004053           JUNCTION     0.29     1.90    10.67     0  00:45        1.08
  HS02004052           JUNCTION     0.36     1.50    11.15     0  00:45        1.38
  HS02004049           JUNCTION     0.21     1.10    11.78     0  00:46        0.86
  HS02004048           JUNCTION     0.50     1.70    12.60     0  00:44        1.70
  HS02004046           JUNCTION     0.44     1.76    13.48     0  00:44        1.59
  HS02004043           JUNCTION     0.23     1.76    14.45     0  00:44        1.51
  HS02004041           JUNCTION     0.14     0.38    15.82     0  00:47        0.38
  HS02004038           JUNCTION     0.13     0.34    19.03     0  00:47        0.34
  HS02004036           JUNCTION     0.00     0.00    22.46     0  00:00        0.00
  HS02004034           JUNCTION     0.00     0.00    26.83     0  00:00        0.00
  HS02004028           JUNCTION     0.20     0.51    37.36     0  00:44        0.51
  HS02004027           JUNCTION     0.16     0.34    36.47     0  00:44        0.34
  HS02004026           JUNCTION     0.16     0.35    35.75     0  00:44        0.34
  HS02004024           JUNCTION     0.17     0.42    34.63     0  00:44        0.41
  HS02004022           JUNCTION     0.24     0.80    33.84     0  00:43        0.80
  HS02004021           JUNCTION     0.28     0.81    32.54     0  00:42        0.81
  HS02004019           JUNCTION     0.35     0.80    31.76     0  00:40        0.80
  HS02004018           JUNCTION     0.24     0.60    33.81     0  00:43        0.60
  HS02004017           JUNCTION     0.22     0.53    34.37     0  00:44        0.53
  HS02004013           JUNCTION     0.14     0.45    35.59     0  00:47        0.45
  HS02004010           JUNCTION     0.05     0.17    38.03     0  00:47        0.17
  HS02003174           JUNCTION     0.19     0.45     5.99     0  00:48        0.45
  HS02003171           JUNCTION     0.21     0.50     6.18     0  00:47        0.50
  HS02003170           JUNCTION     0.25     0.47     6.93     0  00:47        0.47
  HS02003168           JUNCTION     0.13     0.31     6.81     0  00:47        0.31
  HS02003166           JUNCTION     0.24     0.48     6.96     0  00:47        0.48
  HS02003162           JUNCTION     0.23     0.42    30.67     0  00:41        0.42
  HS02003160           JUNCTION     0.17     0.37    28.42     0  00:46        0.37
  HS02003150           JUNCTION     0.18     0.39    26.41     0  00:46        0.39
  HS02003148           JUNCTION     0.21     0.51    22.25     0  00:46        0.50
  HS02003145           JUNCTION     0.27     0.81    14.68     0  00:44        0.81
  HS02003143           JUNCTION     0.39     0.80    13.27     0  00:38        0.80
  HS02003138           JUNCTION     0.23     0.55     7.04     0  01:41        0.55
  HS02003136           JUNCTION     1.53     2.28    10.00     0  00:00        2.28
  HS02003125           JUNCTION     1.59     2.37     9.82     0  00:32        2.29
  HS02003122           JUNCTION     1.63     2.48     9.91     0  00:32        2.39
  HS02003119           JUNCTION     1.40     2.58    10.30     0  00:32        2.19
  HS02003116           JUNCTION     1.07     2.39    10.52     0  00:32        1.79
  HS02003111           JUNCTION     0.47     0.89     9.90     0  00:47        0.89
  HS02003108           JUNCTION     0.38     0.98    10.09     0  00:42        0.86
  HS02003100           JUNCTION     0.27     0.82    10.06     0  00:47        0.80
  HS02003088           JUNCTION     0.23     0.82    10.12     0  00:46        0.80
  HS02003084           JUNCTION     0.10     0.71    10.14     0  00:47        0.67
  HS02003079           JUNCTION     0.07     0.62    10.13     0  00:47        0.60
  HS02003077           JUNCTION     0.02     0.40    10.14     0  00:47        0.39
  HS02003065           JUNCTION     0.71     1.64    10.87     0  00:46        1.63
  HS02003056           JUNCTION     0.76     1.75    10.70     0  00:44        1.73
  HS02003053           JUNCTION     0.53     1.66    10.96     0  00:36        1.61
  HS02003042           JUNCTION     0.35     1.69    11.35     0  00:38        1.37
  HS02003039           JUNCTION     0.39     1.77    11.42     0  00:44        1.45
  HS02003036           JUNCTION     0.20     1.41    11.47     0  00:44        1.22
  HS02003028           JUNCTION     0.32     1.40    11.14     0  00:43        1.40
  HS02003021           JUNCTION     0.34     1.55    10.92     0  00:43        1.49
  HS02003018           JUNCTION     0.36     1.48    10.69     0  00:43        1.48
  HS02003017           JUNCTION     0.36     1.48    10.64     0  00:43        1.48
  HS02003013           JUNCTION     0.35     1.47    10.52     0  00:43        1.44
  HS02003010           JUNCTION     0.38     1.43    10.24     0  00:43        1.32
  HS02003007           JUNCTION     0.34     1.21     9.83     0  00:43        1.10
  HS02003004           JUNCTION     0.42     1.03     9.35     0  00:43        0.98
  HS02003001           JUNCTION     0.12     0.30     8.59     0  00:47        0.30
  YS02001738           JUNCTION     0.00     0.00     8.89     0  00:00        0.00
  YS02001739           JUNCTION     0.00     0.00     8.37     0  00:00        0.00
  YS02001742           JUNCTION     0.00     0.00     8.49     0  00:00        0.00
  YS02001745           JUNCTION     0.15     0.39     7.91     0  00:48        0.39
  YS02001748           JUNCTION     0.18     0.69     7.76     0  00:49        0.68
  YS02001751           JUNCTION     0.19     0.88     7.76     0  00:49        0.88
  YS02001754           JUNCTION     0.22     2.20     8.81     0  00:47        1.13
  YS02001762           JUNCTION     0.43     2.15     8.55     0  00:46        1.58
  YS02001765           JUNCTION     0.41     2.10     8.55     0  00:47        1.60
  YS02001767           JUNCTION     0.43     2.03     8.52     0  00:47        1.68
  YS02001770           JUNCTION     0.49     1.95     8.44     0  00:46        1.95
  YS02001774           JUNCTION     0.56     2.05     8.47     0  00:46        2.00
  YS02001779           JUNCTION     0.31     1.68     8.37     0  00:46        1.68
  YS02001882           JUNCTION     0.80     1.82     8.54     0  00:42        1.65
  YS02001884           JUNCTION     0.89     1.89     8.50     0  00:42        1.75
  YS02001759           JUNCTION     0.43     2.21     8.57     0  00:46        1.55
  YS02001887           JUNCTION     0.97     1.89     8.43     0  00:42        1.83
  YS02001890           JUNCTION     0.99     1.81     8.32     0  00:42        1.81
  YS02001898           JUNCTION     0.76     1.77     8.51     0  00:42        1.56
  YS02001901           JUNCTION     0.87     1.76     8.37     0  00:42        1.67
  YS02001904           JUNCTION     0.85     1.64     8.27     0  00:43        1.63
  YS02001907           JUNCTION     1.17     1.96     8.25     0  00:42        1.96
  YS02001910           JUNCTION     0.99     2.04     8.55     0  00:43        1.99
  YS02001915           JUNCTION     0.83     2.00     8.72     0  00:42        1.96
  YS02001918           JUNCTION     0.55     1.81     8.88     0  00:43        1.81
  YS02001920           JUNCTION     0.64     2.14     9.15     0  00:45        1.92
  YS02001923           JUNCTION     0.45     2.03     9.29     0  00:45        1.72
  YS02001926           JUNCTION     0.45     1.90     9.35     0  00:44        1.58
  YS02001929           JUNCTION     0.31     1.78     9.47     0  00:45        1.37
  YS02001932           JUNCTION     0.21     1.77     9.57     0  00:45        1.28
  YS02001935           JUNCTION     0.15     1.75     9.68     0  00:45        1.19
  YS02001757           JUNCTION     0.42     2.10     8.36     0  00:46        1.44
  YS02001895           JUNCTION     0.76     1.64     8.39     0  00:42        1.56
  YS02005679           JUNCTION     0.00     0.00    10.24     0  00:00        0.00
  YS02005559           JUNCTION     0.10     0.20    10.15     0  00:49        0.20
  YS02005651           JUNCTION     0.07     0.18    10.95     0  00:47        0.18
  YS02005670           JUNCTION     0.08     0.20    10.66     0  00:47        0.20
  YS02005547           JUNCTION     0.05     0.15    10.69     0  00:46        0.15
  YS02005549           JUNCTION     0.08     0.23    11.14     0  00:46        0.23
  YS02005550           JUNCTION     0.10     0.28    10.91     0  00:47        0.28
  YS02005551           JUNCTION     0.06     0.14    10.51     0  00:47        0.14
  YS02005553           JUNCTION     0.12     0.28    10.64     0  00:49        0.28
  YS02005554           JUNCTION     0.07     0.14    10.38     0  00:49        0.14
  YS02005556           JUNCTION     0.13     0.26    10.32     0  00:49        0.26
  YS02005557           JUNCTION     0.07     0.14    10.10     0  00:49        0.14
  YS02005560           JUNCTION     0.08     0.15     9.89     0  00:48        0.15
  YS02005562           JUNCTION     0.12     0.24     9.97     0  00:48        0.23
  YS02005563           JUNCTION     0.07     0.13     9.80     0  00:48        0.13
  YS02005565           JUNCTION     0.11     0.21     9.91     0  00:48        0.21
  YS02005566           JUNCTION     0.09     0.17     9.56     0  00:48        0.17
  YS02005568           JUNCTION     0.13     0.28     9.78     0  00:48        0.28
  YS02005569           JUNCTION     0.10     0.20     9.52     0  00:48        0.20
  YS02005598           JUNCTION     0.23     1.07    10.91     0  00:43        1.07
  YS02005600           JUNCTION     0.22     1.02    10.68     0  00:43        1.02
  YS02005602           JUNCTION     0.50     2.15    10.43     0  00:43        2.15
  YS02005603           JUNCTION     0.16     1.17     9.30     0  00:43        0.58
  YS02005609           JUNCTION     0.08     0.21     9.10     0  00:47        0.20
  YS02005653           JUNCTION     0.13     0.77    11.74     0  00:47        0.77
  YS02005654           JUNCTION     0.14     0.63    11.38     0  00:45        0.59
  YS02005655           JUNCTION     0.06     0.14    10.78     0  00:47        0.14
  YS02005595           JUNCTION     0.32     1.36    11.04     0  00:42        1.36
  YS02005658           JUNCTION     0.11     0.45    11.36     0  00:46        0.39
  YS02005659           JUNCTION     0.06     0.15    10.80     0  00:47        0.15
  YS02005661           JUNCTION     0.14     0.60    11.31     0  00:47        0.60
  YS02005662           JUNCTION     0.05     0.13    10.75     0  00:47        0.13
  YS02005664           JUNCTION     0.13     0.46    11.05     0  00:47        0.46
  YS02005665           JUNCTION     0.05     0.11    10.68     0  00:47        0.11
  YS02005668           JUNCTION     0.05     0.12    10.28     0  00:47        0.12
  YS02005667           JUNCTION     0.27     0.63    10.65     0  00:46        0.63
  YS02005571           JUNCTION     0.16     0.40     9.89     0  00:46        0.38
  YS02005572           JUNCTION     0.11     0.22     9.58     0  00:49        0.22
  YS02005576           JUNCTION     0.12     0.24    10.00     0  00:48        0.24
  YS02005577           JUNCTION     0.11     0.21     9.69     0  00:48        0.21
  YS02005579           JUNCTION     0.30     1.12    10.74     0  00:46        1.12
  YS02005580           JUNCTION     0.18     0.92    10.46     0  00:46        0.69
  YS02005582           JUNCTION     0.33     0.86    10.94     0  00:45        0.86
  YS02005583           JUNCTION     0.17     0.96    10.95     0  00:45        0.41
  YS02005612           JUNCTION     0.42     1.41     9.54     0  00:47        1.41
  YS02005615           JUNCTION     0.06     0.15    11.64     0  00:46        0.15
  YS02005616           JUNCTION     0.05     0.12    10.94     0  00:46        0.12
  YS02005618           JUNCTION     0.08     0.24    11.10     0  00:47        0.24
  YS02005619           JUNCTION     0.05     0.14    10.69     0  00:47        0.14
  YS02005621           JUNCTION     0.09     0.28    11.39     0  00:46        0.28
  YS02005622           JUNCTION     0.04     0.11    11.08     0  00:46        0.11
  YS02005625           JUNCTION     0.04     0.10    11.12     0  00:46        0.10
  YS02005627           JUNCTION     0.11     0.45    11.38     0  00:45        0.39
  YS02005628           JUNCTION     0.04     0.11    11.01     0  00:47        0.11
  YS02005630           JUNCTION     0.10     0.45    11.53     0  00:46        0.39
  YS02005631           JUNCTION     0.05     0.13    11.00     0  00:47        0.13
  YS02005633           JUNCTION     0.10     0.42    11.54     0  00:46        0.38
  YS02005634           JUNCTION     0.05     0.14    10.98     0  00:47        0.14
  YS02005636           JUNCTION     0.11     0.51    11.50     0  00:47        0.51
  YS02005637           JUNCTION     0.06     0.16    10.92     0  00:47        0.16
  YS02005639           JUNCTION     0.10     0.43    11.06     0  00:46        0.40
  YS02005640           JUNCTION     0.06     0.16    10.49     0  00:47        0.16
  YS02005642           JUNCTION     0.08     0.21    11.04     0  00:47        0.21
  YS02005644           JUNCTION     0.13     0.62    11.73     0  00:47        0.62
  YS02005645           JUNCTION     0.08     0.19    11.00     0  00:47        0.19
  YS02005647           JUNCTION     0.24     1.03    11.92     0  00:45        1.03
  YS02005648           JUNCTION     0.09     0.23    11.02     0  00:45        0.23
  YS02005650           JUNCTION     0.14     0.66    11.55     0  00:47        0.65
  YS02005671           JUNCTION     0.04     0.10    10.32     0  00:47        0.10
  YS02005673           JUNCTION     0.08     0.21    10.57     0  00:47        0.21
  YS02005674           JUNCTION     0.05     0.14    10.03     0  00:47        0.14
  YS02005676           JUNCTION     0.00     0.00    10.24     0  00:00        0.00
  YS02005680           JUNCTION     0.05     0.14    10.24     0  00:47        0.14
  YS02005682           JUNCTION     0.00     0.00    10.06     0  00:00        0.00
  YS02005683           JUNCTION     0.03     0.09     9.98     0  00:47        0.09
  YS02005376           JUNCTION     0.82     1.01    11.10     0  00:28        1.01
  YS02005378           JUNCTION     1.36     1.62    11.14     0  00:28        1.62
  YS02005381           JUNCTION     1.25     1.57    11.20     0  00:28        1.57
  YS02005624           JUNCTION     0.23     0.51    11.39     0  00:46        0.51
  YS02005384           JUNCTION     0.40     0.95    10.61     0  00:28        0.53
  YS02005677           JUNCTION     0.06     0.16    10.23     0  00:47        0.16
  YSB1105              JUNCTION     0.28     0.55    10.03     0  00:45        0.53
  YSB1106              JUNCTION     0.28     2.00    11.84     0  00:45        0.76
  YSB1109              JUNCTION     0.35     1.90    11.84     0  00:45        1.08
  YSB1112              JUNCTION     0.36     1.95    12.08     0  00:45        1.30
  YSB1115              JUNCTION     0.33     1.90    12.20     0  00:45        1.29
  YSB1118              JUNCTION     0.35     1.80    12.34     0  00:45        1.45
  YSB1121              JUNCTION     0.42     1.70    12.37     0  00:45        1.70
  YSB1124              JUNCTION     0.28     1.60    12.43     0  00:45        1.54
  YSB1128              JUNCTION     0.45     1.85    12.43     0  00:41        1.85
  YSB1132              JUNCTION     0.51     1.90    12.35     0  00:41        1.85
  YSB1228              JUNCTION     0.06     0.16    11.01     0  00:46        0.16
  YSB1202              JUNCTION     1.00     1.50    12.39     0  00:38        1.46
  YSB1135              JUNCTION     0.64     2.00    12.26     0  00:41        1.92
  YSB1138              JUNCTION     0.73     1.90    12.07     0  00:41        1.90
  YSB1141              JUNCTION     0.78     2.00    11.83     0  00:41        1.89
  YSB1145              JUNCTION     0.79     2.00    11.69     0  00:41        1.87
  YSB1148              JUNCTION     0.87     2.00    11.50     0  00:41        1.89
  YSB1151              JUNCTION     1.05     2.07    11.30     0  00:41        2.00
  YSB1154              JUNCTION     1.19     2.10    11.16     0  00:41        2.10
  YSB1198              JUNCTION     0.22     1.60    12.39     0  00:42        1.18
  YSB1192              JUNCTION     0.43     1.90    12.17     0  00:41        1.69
  YSB6556              JUNCTION     1.03     1.80    10.97     0  00:41        1.80
  YSB1205              JUNCTION     1.18     1.65    12.35     0  00:38        1.65
  YSB1209              JUNCTION     1.15     1.65    12.22     0  00:38        1.65
  YSB1212              JUNCTION     1.05     1.60    12.13     0  00:38        1.60
  YSB1215              JUNCTION     1.06     1.70    12.05     0  00:38        1.69
  YSB1218              JUNCTION     1.06     1.75    11.94     0  00:44        1.75
  YSB1221              JUNCTION     0.99     1.67    11.64     0  00:38        1.58
  YSB1224              JUNCTION     0.86     1.33    11.18     0  01:10        1.33
  YSB1195              JUNCTION     0.38     1.90    12.28     0  00:41        1.59
  YSB1189              JUNCTION     0.53     1.80    11.96     0  00:41        1.80
  YSB1186              JUNCTION     0.59     1.94    11.81     0  00:41        1.74
  YSB1183              JUNCTION     0.74     2.05    11.64     0  00:41        1.87
  YSB1180              JUNCTION     0.77     1.95    11.46     0  00:41        1.83
  YSB1177              JUNCTION     1.03     2.05    11.24     0  00:41        2.01
  YSB1174              JUNCTION     1.08     1.95    11.06     0  00:45        1.95
  YSB1171              JUNCTION     1.24     1.95    10.85     0  00:40        1.95
  YS02006553           JUNCTION     1.16     2.03     8.31     0  00:43        1.98
  YS02006561           JUNCTION     0.42     1.29     7.95     0  00:43        0.92
  YS02006562           JUNCTION     0.93     1.91     8.42     0  00:43        1.79
  YS02006556           JUNCTION     1.13     2.07     8.39     0  00:43        1.98
  YS02006558           JUNCTION     1.17     2.15     8.41     0  00:43        2.04
  YS6132               JUNCTION     0.57     2.79    10.11     0  00:51        1.56
  YS6137               JUNCTION     0.29     2.57    10.36     0  00:47        1.62
  YS6189               JUNCTION     0.39     2.64    10.43     0  00:47        1.97
  YS6184               JUNCTION     0.39     2.49    10.38     0  00:47        2.31
  YS6179               JUNCTION     0.33     2.58    10.56     0  00:47        2.39
  YS6176               JUNCTION     0.24     2.40    10.60     0  00:47        2.27
  YS6171               JUNCTION     0.26     2.10    10.51     0  00:46        2.10
  YS6168               JUNCTION     0.28     2.00    10.51     0  00:47        2.00
  YS6164               JUNCTION     0.09     1.90    10.63     0  00:47        1.90
  YS6162               JUNCTION     0.15     2.10    10.75     0  00:47        1.98
  YS6187               JUNCTION     0.44     2.65    10.43     0  00:47        2.11
  YS6363               JUNCTION     0.34     2.99    10.78     0  00:47        1.25
  YS6360               JUNCTION     0.45     2.88    10.68     0  00:51        1.42
  YS6354               JUNCTION     0.43     2.60    10.75     0  00:47        1.75
  YS6351               JUNCTION     0.52     2.50    10.71     0  00:47        2.10
  YS6350               JUNCTION     0.59     2.50    10.72     0  00:47        2.31
  YS6348               JUNCTION     0.54     2.45    10.85     0  00:45        2.45
  YS6344               JUNCTION     0.36     2.27    10.86     0  00:49        2.26
  YS6375               JUNCTION     0.09     0.32     8.74     0  00:47        0.31
  YS6377               JUNCTION     0.16     0.38     8.74     0  00:47        0.38
  YS6381               JUNCTION     0.17     0.43     8.56     0  00:47        0.43
  YS6386               JUNCTION     0.20     0.50     8.48     0  00:47        0.50
  YS6390               JUNCTION     0.42     0.63     8.32     0  00:47        0.63
  YS6394               JUNCTION     0.11     0.25     8.17     0  00:48        0.25
  YS6404               JUNCTION     0.54     3.00    10.23     0  00:47        1.21
  YS6401               JUNCTION     0.17     0.41     7.63     0  00:48        0.40
  YS02004319           JUNCTION     0.31     1.18    20.80     0  00:41        1.18
  YS02004320           JUNCTION     0.00     0.00    22.64     0  00:59        0.00
  YS02004321           JUNCTION     0.00     0.00    26.80     0  00:52        0.00
  YS02004307           JUNCTION     0.16     0.52    11.05     0  00:47        0.52
  YS02004309           JUNCTION     0.82     1.55    13.07     0  00:33        1.55
  YS02004312           JUNCTION     0.50     1.48    14.91     0  00:40        1.48
  YS02004314           JUNCTION     0.36     1.28    16.99     0  00:41        1.28
  YS02004316           JUNCTION     0.36     1.36    19.13     0  00:41        1.36
  YS02001783           JUNCTION     0.65     1.52     7.66     0  00:43        1.25
  YS02001784           JUNCTION     0.62     1.27     7.34     0  00:43        1.13
  YS02001786           JUNCTION     0.50     1.00     7.03     0  00:43        0.88
  YS02001788           JUNCTION     0.37     0.63     6.60     0  00:45        0.63
  YS02001790           JUNCTION     0.43     0.72     6.37     0  00:47        0.72
  YS02001791           JUNCTION     0.26     0.44     5.91     0  00:54        0.43
  YS02001793           JUNCTION     0.14     0.29     5.13     0  00:46        0.29
  YS02003309           JUNCTION     0.70     1.21     9.77     0  00:28        1.04
  YS02003306           JUNCTION     0.82     1.16     9.60     0  00:28        1.16
  YS02003269           JUNCTION     0.14     0.17     7.76     0  00:41        0.17
  YS02003272           JUNCTION     0.41     1.51     9.24     0  00:28        0.58
  YS02003278           JUNCTION     0.81     1.27     9.19     0  00:28        1.21
  YS02003281           JUNCTION     0.91     1.39     9.47     0  00:28        1.39
  YS02003284           JUNCTION     1.00     1.40     9.41     0  00:28        1.40
  YS02003287           JUNCTION     0.95     1.27     9.34     0  00:28        1.27
  YS02003290           JUNCTION     0.81     1.11     9.40     0  00:28        1.10
  YS02003294           JUNCTION     0.96     1.24     9.42     0  00:28        1.24
  YS02003275           JUNCTION     0.61     1.27     9.18     0  00:28        0.92
  YS02003297           JUNCTION     0.94     1.22     9.43     0  00:28        1.22
  YS02003300           JUNCTION     0.88     1.15     9.42     0  00:28        1.15
  YS02003303           JUNCTION     0.87     1.14     9.46     0  00:28        1.14
  YSB1227              JUNCTION     0.01     0.11    11.01     0  00:46        0.10
  CaochengRainPumpOutfall1 OUTFALL      0.00     0.00     6.00     0  00:00        0.00
  JiankangRainPumpOutfall2 OUTFALL      0.00     0.00     6.00     0  00:00        0.00
  JiankangRainPumpOutfall1 OUTFALL      0.00     0.00     6.00     0  00:00        0.00
  CaochengRainPumpOutfall2 OUTFALL      0.00     0.00     6.00     0  00:00        0.00
  YS02005684           OUTFALL      0.03     0.08     8.49     0  00:47        0.08
  YS02005681           OUTFALL      0.05     0.14     9.36     0  00:47        0.14
  YS02005678           OUTFALL      0.06     0.16     8.69     0  00:47        0.16
  YS02005675           OUTFALL      0.05     0.14     8.68     0  00:47        0.14
  YS02005672           OUTFALL      0.04     0.10     8.43     0  00:47        0.10
  YS02005669           OUTFALL      0.05     0.12     8.83     0  00:47        0.12
  YS02005666           OUTFALL      0.05     0.11     8.79     0  00:47        0.11
  YS02005663           OUTFALL      0.05     0.13     8.87     0  00:47        0.13
  YS02005660           OUTFALL      0.06     0.14     8.96     0  00:47        0.14
  YS02005657           OUTFALL      0.00     0.00     8.74     0  00:00        0.00
  YS02005652           OUTFALL      0.07     0.18     8.80     0  00:47        0.18
  YS02005649           OUTFALL      0.09     0.23     8.93     0  00:45        0.23
  YS02005646           OUTFALL      0.08     0.19     8.19     0  00:47        0.19
  YS02005643           OUTFALL      0.08     0.21     8.77     0  00:47        0.21
  YS02005641           OUTFALL      0.06     0.16     8.85     0  00:47        0.16
  YS02005638           OUTFALL      0.06     0.16     8.82     0  00:47        0.16
  YS02005635           OUTFALL      0.05     0.14     8.80     0  00:47        0.14
  YS02005632           OUTFALL      0.05     0.13     8.69     0  00:47        0.13
  YS02005629           OUTFALL      0.04     0.11     8.59     0  00:47        0.11
  YS02005626           OUTFALL      0.04     0.10     8.62     0  00:46        0.10
  YS02005623           OUTFALL      0.04     0.11     8.59     0  00:46        0.11
  YS02005620           OUTFALL      0.05     0.14     8.93     0  00:47        0.14
  YS02005617           OUTFALL      0.05     0.12     8.96     0  00:46        0.12
  YSB1103              OUTFALL      0.29     0.60     8.60     0  00:45        0.60
  YSB1229              OUTFALL      0.06     0.16     8.96     0  00:46        0.16
  YS02005548           OUTFALL      0.05     0.15     9.15     0  00:46        0.15
  YS02005552           OUTFALL      0.06     0.14     8.77     0  00:47        0.14
  YS02005555           OUTFALL      0.07     0.14     8.87     0  00:49        0.13
  YS02005558           OUTFALL      0.07     0.14     8.84     0  00:49        0.14
  YS02005561           OUTFALL      0.08     0.15     8.83     0  00:49        0.15
  YS02005564           OUTFALL      0.07     0.13     8.61     0  00:48        0.13
  YS02005567           OUTFALL      0.09     0.17     8.71     0  00:48        0.17
  YS02005570           OUTFALL      0.10     0.20     8.91     0  00:48        0.20
  YS02005574           OUTFALL      0.11     0.22     9.06     0  00:49        0.22
  YS02005578           OUTFALL      0.11     0.21     8.99     0  00:48        0.21
  WS02005134           OUTFALL      0.00     0.00     8.74     0  00:00        0.00
  YS02005581           OUTFALL      0.14     0.30     9.10     0  00:46        0.30
  YS02005584           OUTFALL      0.15     0.30     9.26     0  00:44        0.30
  YS02005593           OUTFALL      0.25     0.28     9.00     0  00:59        0.28
  YS02005596           OUTFALL      0.15     0.30     8.84     0  00:42        0.30
  YS02005374           OUTFALL      0.13     0.30     8.54     0  00:43        0.30
  YS02005375           OUTFALL      0.13     0.30     8.69     0  00:42        0.30
  YS02005607           OUTFALL      0.13     0.30     7.53     0  00:43        0.30
  YS02005610           OUTFALL      0.08     0.20     8.82     0  00:47        0.20
  YS02005613           OUTFALL      0.14     0.30     8.58     0  00:45        0.30
  HS02003172           OUTFALL      0.19     0.45     5.90     0  00:48        0.45
  YS6395               OUTFALL      0.11     0.25     6.68     0  00:48        0.25
  YS6405               OUTFALL      0.17     0.40     3.85     0  00:48        0.39
  WSC                  OUTFALL      0.62     0.80     5.00     0  00:37        0.80
  JiankangQianchi      STORAGE      2.84     4.21     5.01     0  00:44        4.19
  CaochengTiaoxuchi    STORAGE      0.97     1.34     6.84     0  01:03        1.34
  XierchiQianchi       STORAGE      7.02     7.47     5.47     0  02:02        7.47
  
  
  *******************
  Node Inflow Summary
  *******************
  
  -------------------------------------------------------------------------------------------------
                                  Maximum  Maximum                  Lateral       Total        Flow
                                  Lateral    Total  Time of Max      Inflow      Inflow     Balance
                                   Inflow   Inflow   Occurrence      Volume      Volume       Error
  Node                 Type           LPS      LPS  days hr:min    10^6 ltr    10^6 ltr     Percent
  -------------------------------------------------------------------------------------------------
  WS02001211           JUNCTION      7.35   235.41     0  00:43      0.0538        1.18       4.472
  WS02001212           JUNCTION      0.00   231.46     0  00:44           0        1.14       2.518
  WS02001213           JUNCTION      0.00   235.59     0  01:22           0        1.12       3.407
  WS02003069           JUNCTION      0.32  2519.71     0  00:48     0.00235        10.6       0.704
  WS02003072           JUNCTION      0.00  2519.78     0  00:48           0        10.6       0.590
  WS02003073           JUNCTION      1.82  3087.15     0  00:48      0.0133          14       0.283
  WS02003076           JUNCTION      0.00  3087.11     0  00:48           0        13.9       0.316
  WS02003060           JUNCTION     16.53  2519.52     0  00:48       0.121        10.8       0.565
  WS02003066           JUNCTION      0.00  2322.68     0  00:47           0         9.6       0.110
  WS02003059           JUNCTION      0.00   239.66     0  01:22           0        1.13       5.279
  WS02003115           JUNCTION      0.00   477.10     0  01:00           0        1.16       0.347
  WS02003116           JUNCTION      0.00   298.36     0  00:24           0        1.15       0.716
  WS02003118           JUNCTION      0.08   235.37     0  00:31    2.31e-06        1.14       1.309
  WS02003215           JUNCTION      0.18  2218.40     0  00:47    2.08e-05        3.02       0.882
  WS02003110           JUNCTION      0.18   429.03     0  00:47     0.00132       0.591       1.252
  WS02003111           JUNCTION      1.49   907.40     0  00:47      0.0107        1.68       0.423
  WS02005155           JUNCTION      0.38   428.78     0  00:47     0.00279        0.59       1.668
  WS02005154           JUNCTION    428.31   428.31     0  00:47       0.586       0.588       1.009
  WS02005193           JUNCTION      0.00   188.56     0  00:28           0      0.0152     138.385
  WS02005196           JUNCTION      0.00   155.83     0  00:28           0     0.00569     578.356
  WS02003067           JUNCTION      0.00  1869.83     0  00:47           0        7.54       0.194
  WS02004401           JUNCTION      0.00  1102.29     0  01:33           0        5.87       0.537
  WS02004402           JUNCTION      0.00  1102.23     0  01:34           0        5.85       0.477
  WS02004403           JUNCTION      0.00  1102.32     0  01:34           0        5.83       0.414
  WS02004404           JUNCTION      0.16  1102.86     0  01:34     0.00119        5.81       0.286
  WS02004406           JUNCTION      0.00  1102.66     0  01:34           0        5.79       0.709
  WS02004409           JUNCTION      0.00  1826.98     0  00:45           0        8.32       0.424
  WS02004410           JUNCTION      0.00  1869.51     0  00:47           0        8.37       0.430
  WS02004411           JUNCTION      0.00  1869.71     0  00:47           0        7.66       0.452
  WS02004412           JUNCTION      0.00  1869.75     0  00:47           0        7.62       0.451
  WS02004413           JUNCTION      0.00  1869.71     0  00:47           0        7.59       0.576
  WS02004405           JUNCTION      0.18  1102.91     0  01:34    0.000432        5.81       0.418
  WS02006109           JUNCTION      1.94  1308.01     0  00:00     0.00965        6.69       0.339
  WS02006110           JUNCTION      0.32  1101.77     0  01:34    0.000246        6.01      -0.325
  WS02006111           JUNCTION      0.04  1176.04     0  00:00    6.63e-06           6      -0.294
  WS02006112           JUNCTION      0.48  2307.30     0  00:00    2.47e-05        6.02       0.274
  WS02006113           JUNCTION      0.03  1101.92     0  01:34    2.04e-06        5.98      -0.355
  WS02006115           JUNCTION      0.00  1366.62     0  00:00           0        5.92       0.556
  WS02006116           JUNCTION      0.34  1102.19     0  01:33    0.000435        5.89       0.462
  WS02006230           JUNCTION     10.44  1027.55     0  00:45      0.0753        3.63       0.453
  WS02006231           JUNCTION      0.52   453.34     0  01:04     0.00147        2.16       0.751
  WS02006232           JUNCTION      0.23   453.53     0  01:14    0.000115        2.18       0.829
  WS02006234           JUNCTION      0.10   453.34     0  01:15    3.03e-06        2.19       0.562
  WS02006235           JUNCTION      0.27   415.09     0  00:47    0.000534        2.22       0.494
  WS02006238           JUNCTION      0.00   415.28     0  00:47           0        2.23       0.330
  WS02006240           JUNCTION      0.00   415.00     0  00:47           0        2.26       0.730
  WS02006242           JUNCTION      0.41   415.07     0  00:47    0.000154        2.28       0.868
  WS02006243           JUNCTION      0.71   285.37     0  00:25     0.00152        1.68       0.964
  WS02006245           JUNCTION      0.00   292.97     0  00:25           0         1.7       0.787
  WS02006247           JUNCTION      0.00   305.22     0  00:26           0        1.71       0.701
  WS02006248           JUNCTION      0.00   346.54     0  00:35           0        2.06       0.541
  WS02006249           JUNCTION      0.00  1383.55     0  00:47           0        5.93       0.283
  WS02006239           JUNCTION      0.00   415.14     0  00:47           0        2.24       0.568
  WS02006251           JUNCTION      0.08  1726.73     0  00:47    0.000564        6.19       0.298
  WS02006252           JUNCTION      0.00   740.42     0  00:47           0        2.47       0.019
  WS02006253           JUNCTION     54.75  1726.58     0  00:47      0.0701        4.58       0.450
  WS02006256           JUNCTION      0.00   300.00     0  00:32           0        1.62       0.064
  WS02004138           JUNCTION      0.00   190.00     0  00:29           0        1.17       0.257
  WS02004139           JUNCTION      0.32   190.32     0  00:33     0.00235        1.17       3.725
  WS02004407           JUNCTION      0.06  1827.39     0  00:45    7.63e-05        8.38       0.358
  WS02006228           JUNCTION      1.18  1289.87     0  00:45     0.00089        6.67       0.228
  WS02006229           JUNCTION      0.92  2307.64     0  00:45     0.00077        10.1       0.278
  WS02006280           JUNCTION      0.23  2307.01     0  00:45    0.000345          10       0.030
  WS02006284           JUNCTION      0.16  2306.91     0  00:45    0.000734        10.1       0.168
  WS02006287           JUNCTION      0.19  2306.88     0  00:45    7.78e-05        10.1       0.112
  WS02003091           JUNCTION      0.46  1200.35     0  00:00     0.00101        3.54      -1.115
  WS02003203           JUNCTION      0.31  2264.56     0  00:00    0.000138        5.63       0.179
  WS6145               JUNCTION      0.23   235.45     0  00:45    0.000366      0.0899       0.364
  WS6147               JUNCTION      0.00   235.85     0  00:45           0      0.0789       0.223
  WS6150               JUNCTION      0.09   236.15     0  00:45    0.000386       0.068       0.446
  WS6152               JUNCTION      0.58   238.67     0  00:45     0.00423      0.0571       0.727
  WS6155               JUNCTION      0.01   239.60     0  00:45    4.02e-05      0.0422       0.365
  WS6156               JUNCTION      0.72   237.49     0  00:46     0.00382       0.031       0.421
  WS6136               JUNCTION      0.20   738.97     0  00:45    5.45e-05        1.54       0.064
  WS6140               JUNCTION      0.17   234.23     0  00:45    0.000122        0.11       0.122
  WS6142               JUNCTION      0.18   234.88     0  00:45    0.000152       0.101       0.199
  WS6325               JUNCTION      0.20   149.31     0  00:44     0.00019      0.0886       2.547
  WS6327               JUNCTION      0.14   149.38     0  00:44    0.000483       0.079       0.493
  WS6329               JUNCTION      0.51   149.57     0  00:44      0.0019      0.0682       0.213
  WS6332               JUNCTION      0.35   149.64     0  00:44    0.000773      0.0554       0.176
  WS6158               JUNCTION      1.74   256.90     0  00:46      0.0117       0.016      -1.249
  WS6335               JUNCTION      0.68   150.09     0  00:44     0.00362      0.0434       0.456
  WS6338               JUNCTION      0.35   150.16     0  00:44      0.0011      0.0284       0.247
  WS6340               JUNCTION      0.23   146.66     0  00:44    0.000198      0.0156       0.291
[...]
  WS02003087WS02003086        1.70      1.70      1.78      1.76         0.01
  WS02003086WS02003085        1.70      1.70      1.74      1.80         0.01
  WS02003085WS02003084        1.70      1.71      1.71      1.72         1.70
  WS02003084WS02003083        1.70      1.71      1.70      1.88         1.70
  WS02003083WS02003082        1.69      1.69      1.72      1.79         0.01
  WS02003082WS02003081        1.68      1.68      1.68      1.78         1.68
  WS02003081WS02003080        1.68      1.68      1.68      1.69         1.68
  WS02003080WS02003077        0.63      0.63      1.68      1.68         0.01
  WS02003073WS02003076        0.75      0.75      1.46      0.23         0.01
  HS02004901HS02004770        0.78      0.78      0.79      0.08         0.01
  HS02004876HS02004881        0.79      0.81      0.79      1.63         0.79
  HS02004870HS02004876        0.72      0.72      0.81      0.01         0.01
  HS02004049HS02004052        0.14      0.14      0.17      0.01         0.01
  HS02004048HS02004049        0.25      0.36      0.25      0.44         0.25
  HS02004046HS02004048        0.16      0.16      0.36      0.01         0.01
  HS02004043HS02004046        0.11      0.11      0.18      0.01         0.01
  HS02004041HS02004043        0.01      0.01      0.11      0.01         0.01
  HS02004028HS02004027        0.01      0.14      0.01      0.16         0.01
  HS02003143HS02003065        0.60      0.60      0.85      0.01         0.01
  HS02004842HS02004848        0.63      0.63      0.86      0.01         0.01
  HS02004837HS02004842        0.66      0.66      0.86      0.01         0.01
  HS02004830HS02004837        0.66      0.66      0.72      0.01         0.01
  HS02004824HS02004830        0.72      0.72      0.77      0.01         0.01
  HS02004817HS02004824        0.77      0.77      1.57      0.01         0.01
  HS02004770HS02004777        0.78      0.78      0.79      0.01         0.01
  HS02004799HS02004480        0.97      0.97      1.07      1.09         0.01
  HS02004792HS02004799        0.90      0.90      1.07      0.01         0.01
  HS02004788HS02004792        0.72      0.72      0.90      0.01         0.01
  HS02004785HS02004788        0.72      0.74      0.72      1.60         0.63
  HS02004777HS02004785        0.74      0.74      0.79      0.01         0.01
  HS02004480HS02004478        0.89      0.97      0.89      1.70         0.89
  HS02004479HS02004480        0.98      0.98      1.01      0.01         0.01
  HS02003013HS02003010        0.35      0.35      0.40      0.21         0.21
  HS02003010HS02003007        0.33      0.34      0.35      0.38         0.33
  HS02003007HS02003004        0.35      0.35      0.44      0.18         0.18
  HS02003004HS02003001        0.01      0.44      0.01      1.19         0.01
  HS02003065HS02003056        0.83      0.83      1.01      0.01         0.01
  HS02003042HS02003053        0.30      0.30      0.78      0.01         0.01
  HS02003028HS02003021        0.22      0.22      0.29      0.01         0.01
  HS02003021HS02003018        0.32      0.32      0.34      0.10         0.10
  HS02003018HS02003017        0.34      0.34      0.35      0.11         0.09
  HS02003017HS02003013        0.35      0.35      0.35      0.27         0.25
  HS02004862HS02004870        0.69      0.69      0.72      0.26         0.25
  HS02004848HS02004852        0.63      0.63      0.66      0.02         0.01
  HS02004856HS02004862        0.64      0.64      0.69      0.01         0.01
  HS02004852HS02004856        0.66      0.66      0.69      0.02         0.01
  HS02004024HS02004022        0.01      0.01      0.19      0.01         0.01
  HS02004022HS02004021        0.19      0.19      0.29      0.01         0.01
  HS02004021HS02004019        0.29      0.29      0.39      0.22         0.22
  HS02004019HS02003162        0.01      0.39      0.01      0.42         0.01
  HS02004052HS02004053        0.16      0.17      0.16      0.19         0.16
  HS02003122HS02003125        1.51      1.51      1.51      0.17         0.21
  HS02003119HS02003122        1.50      1.50      1.51      0.01         0.01
  HS02003116HS02003119        1.36      1.36      1.50      0.01         0.01
  HS02003111HS02003116        0.01      0.01      1.46      0.01         0.01
  HS02004018HS02004019        0.23      0.23      0.39      0.01         0.01
  HS02003056HS02003136        0.86      0.86      1.53      0.01         0.01
  HS02004017HS02004018        0.21      0.21      0.23      0.01         0.01
  HS02004013HS02004017        0.01      0.01      0.21      0.05         0.01
  HS02004802HS02004478        0.91      0.91      0.99      0.20         0.01
  HS02004478WS02006287        0.75      0.75      0.96      0.01         0.01
  HS02003079HS02003084        0.01      0.01      0.03      0.01         0.01
  HS02003148HS02003145        0.01      0.01      0.14      0.01         0.01
  HS02003145HS02003143        0.14      0.14      0.57      0.13         0.12
  HS02003136WS02003203        1.54      1.54      1.65      0.01         0.01
  HS02003084HS02003088        0.03      0.03      0.06      0.01         0.01
  HS02003077HS02003079        0.01      0.01      0.01      0.01         0.01
  HS02003108HS02003111        0.16      0.16      0.40      0.01         0.01
  HS02003100HS02003108        0.09      0.09      0.16      0.01         0.01
  HS02003088HS02003100        0.08      0.08      0.09      0.01         0.01
  HS02004817HS02004807        0.95      0.95      1.57      0.01         0.01
  HS02004807HS02004802        0.95      0.95      0.97      0.36         0.36
  HS02003053HS02003056        0.78      0.78      1.01      0.01         0.01
  HS02003039HS02003042        0.36      0.37      0.41      0.21         0.02
  HS02003036HS02003039        0.17      0.17      0.22      0.01         0.01
  YS02001759YS02001757        0.12      0.12      0.12      0.16         0.12
  YS02001762YS02001759        0.12      0.13      0.12      0.16         0.12
  YS02001765YS02001762        0.12      0.12      0.13      0.08         0.07
  YS02001770YS02001767        0.12      0.14      0.12      0.69         0.12
  YS02001774YS02001770        0.13      0.13      0.16      0.01         0.01
  YS02001779YS02001774        0.10      0.10      0.16      0.01         0.01
  YS02001767YS02001765        0.12      0.12      0.12      0.19         0.12
  YS02006561YS02001783        0.47      0.47      0.68      0.01         0.01
  YS02001783YS02001784        0.65      0.68      0.65      0.86         0.65
  YS02001784YS02001785        0.54      0.65      0.54      1.28         0.54
  YS02001790YS02001791        0.01      0.01      0.01      0.64         0.01
  YS02001910YS02001907        0.71      0.71      0.95      0.01         0.02
  YS02001786YS02001788        0.01      0.54      0.01      1.04         0.01
  YS02001915YS02001910        0.61      0.61      0.71      0.01         0.01
  YS02001918YS02001915        0.52      0.52      0.61      0.01         0.01
  YS02001923YS02001920        0.45      0.45      0.54      0.01         0.01
  YS02001926YS02001923        0.17      0.17      0.19      0.01         0.01
  YS02001929YS02001926        0.06      0.06      0.19      0.01         0.01
  YS02001932YS02001929        0.01      0.01      0.06      0.01         0.01
  YS02001935YS02001932        0.01      0.01      0.01      0.01         0.01
  YS02001920YS02001918        0.52      0.52      0.54      0.01         0.01
  YS02003290YS02003287        1.60      1.60      1.64      0.01         0.01
  YS02003294YS02003290        1.60      1.60      1.69      0.06         0.01
  YS02003297YS02003294        1.67      1.67      1.67      0.27         0.27
  YS02003275YS02003272        1.44      1.57      1.44      1.62         1.43
  YS02003300YS02003297        1.60      1.60      1.65      0.01         0.01
  YS02003303YS02003300        1.58      1.58      1.62      0.01         0.01
  YS02005550YS02005551        0.01      0.01      0.01      0.08         0.01
  YS02005568YS02005569        0.01      0.01      0.01      0.20         0.01
  YS02005582YS02005583        0.34      0.58      0.34      0.81         0.34
  YS02003272YS02003269        0.01      1.55      0.01      1.61         0.01
  YS02003278YS02003275        1.59      1.65      1.59      1.74         1.59
  YS02003281YS02003278        1.62      1.62      1.64      1.60         1.59
  YS02003284YS02003281        1.62      1.62      1.65      1.04         0.35
  YS02003287YS02003284        1.63      1.63      1.66      0.01         0.07
  YS02003306YS02003303        1.57      1.57      1.60      0.50         0.50
  YS02003309YS02003306        1.52      1.52      1.57      0.01         0.01
  YS02005600YS02005375        0.21      0.21      0.23      0.23         0.21
  YS02005384YS02005593        0.01      1.54      0.01      1.58         0.01
  YS02005595YS02005596        0.29      0.30      0.29      0.32         0.29
  YS02005612YS02005613        0.10      0.10      1.11      0.31         0.01
  YS02005553YS02005554        0.01      0.01      0.01      0.21         0.01
  YS02005556YS02005557        0.01      0.01      0.01      0.25         0.01
  YS02005562YS02005563        0.01      0.01      0.01      0.17         0.01
  YS02005571YS02005572        0.01      0.20      0.01      0.38         0.01
  YS02005579YS02005580        0.24      0.45      0.24      0.64         0.24
  YS02005580YS02005581        0.21      0.24      0.21      0.26         0.21
  YS02005583YS02005584        0.34      0.34      0.35      0.35         0.34
  YS02006553YS02006556        0.82      0.82      0.99      0.01         0.01
  YS02006556YS02006558        0.89      0.89      1.03      0.01         0.01
  YSB6556YSB1171              1.12      1.12      1.63      0.01         0.01
  YSB1202YSB1205              1.41      1.41      1.42      0.01         0.01
  YSB1205YSB1209              1.42      1.42      1.42      0.91         0.86
  YSB1209YSB1212              1.40      1.42      1.40      1.52         1.40
  YSB1212YSB1215              1.40      1.40      1.40      0.68         0.67
  YSB1215YSB1218              1.40      1.40      1.40      0.74         0.73
  YSB1218YSB1221              1.39      1.39      1.40      1.32         1.32
  YSB1221YSB1224              1.40      1.40      1.41      1.39         1.40
  YSB1224YSB1105              1.09      1.44      1.09      1.53         1.09
  YSB1189YSB1186              0.65      0.65      0.77      0.18         0.18
  YS02001907YS02006553        1.29      1.29      1.42      0.01         0.01
  YS02006562YS02006558        0.68      0.68      1.03      0.01         0.01
  YS02006558YS02006561        0.56      0.81      0.56      1.20         0.56
  YS6184YS6187                0.14      0.14      0.15      0.06         0.08
  YS6360YS6363                0.10      0.15      0.10      0.75         0.09
  YS6354YS6360                0.19      0.20      0.20      0.20         0.18
  YS6351YS6354                0.20      0.22      0.20      0.44         0.19
  YS6350YS6351                0.22      0.25      0.22      0.79         0.22
  YS6348YS6350                0.23      0.23      0.25      0.22         0.21
  YS6344YS6348                0.24      0.24      0.30      0.01         0.01
  YS6363YS6132                0.10      0.10      0.24      0.01         0.01
  YS6137YS6132                0.17      0.17      0.36      0.01         0.01
  YS6189YS6137                0.17      0.17      0.18      1.61         0.01
  YS6187YS6189                0.13      0.13      0.15      0.29         0.01
  YS6179YS6184                0.12      0.12      0.14      0.01         0.01
  YS6176YS6179                0.06      0.06      0.12      0.01         0.01
  YS6171YS6176                0.08      0.08      0.11      0.01         0.01
  YS6168YS6171                0.08      0.08      0.08      0.04         0.04
  YS6164YS6168                0.04      0.04      0.08      0.01         0.01
  YS6162YS6164                0.08      0.08      0.09      0.01         0.01
  YS6132YS6404                0.01      0.15      0.01      0.28         0.01
  YSB1106YSB1105              0.01      0.19      0.01      0.23         0.01
  YSB1109YSB1106              0.19      0.25      0.19      0.39         0.19
  YSB1112YSB1109              0.25      0.25      0.25      0.28         0.25
  YSB1115YSB1112              0.23      0.23      0.25      0.11         0.12
  YSB1118YSB1115              0.26      0.26      0.26      0.28         0.26
  YSB1121YSB1118              0.26      0.29      0.26      0.39         0.26
  YSB1124YSB1121              0.25      0.25      0.29      0.01         0.01
  YSB1105YSB1103              0.01      0.01      0.16      0.16         0.01
  YS02001751YS02001754        0.01      0.01      0.03      0.01         0.01
  YS02001754YS02001757        0.04      0.04      0.12      0.01         0.01
  YS02001882YS02001884        0.61      0.61      0.62      0.01         0.01
  YS02001884YS02001887        0.65      0.65      0.67      0.01         0.01
  YS02001890YS02001895        0.60      0.60      0.72      0.01         0.01
  YS02001895YS02001898        0.60      0.60      0.60      0.01         0.01
  YS02001898YS02001901        0.61      0.61      0.65      0.01         0.01
  YS02001901YS02001904        0.64      0.64      0.65      0.01         0.01
  YS02001904YS02001907        0.64      0.64      1.00      0.01         0.01
  YS02001887YS02001890        0.68      0.68      0.70      0.12         0.01
  YS02004309YS02004307        0.13      1.03      0.13      1.00         0.13
  YS02004319YS02004316        0.33      0.33      0.34      0.01         0.01
  YS02005376YS02005378        1.66      1.66      1.84      0.01         0.01
  YS02005378YS02005381        1.81      1.81      1.84      0.26         0.01
  YS02005381YS02005384        1.54      1.54      1.81      1.82         0.01
  YS02005598YS02005374        0.21      0.21      0.23      0.23         0.21
  YS02005602YS02005603        0.19      0.50      0.19      0.64         0.19
  YS02005603YS02005607        0.19      0.19      0.21      0.21         0.19
  YS02005621YS02005622        0.01      0.01      0.01      0.06         0.01
  YS02005624YS02005625        0.01      0.01      0.25      0.03         0.01
  YS02005630YS02005631        0.01      0.04      0.01      0.09         0.01
  YS02005633YS02005634        0.01      0.04      0.01      0.06         0.01
  YS02005636YS02005637        0.01      0.08      0.01      0.12         0.01
  YS02005639YS02005640        0.01      0.05      0.01      0.08         0.01
  YS02005627YS02005628        0.01      0.05      0.01      0.26         0.01
  YS02005644YS02005645        0.01      0.09      0.01      0.12         0.01
  YS02005650YS02005651        0.01      0.13      0.01      0.21         0.01
  YS02005653YS02005654        0.11      0.11      0.11      0.11         0.10
  YS02005654YS02005655        0.01      0.11      0.01      0.20         0.01
  YS02005658YS02005659        0.01      0.05      0.01      0.09         0.01
  YS02005661YS02005662        0.01      0.11      0.01      0.23         0.01
  YS02005664YS02005665        0.01      0.09      0.01      0.45         0.01
  YS02005667YS02005668        0.01      0.01      0.46      0.08         0.01
  YS02005647YS02005648        0.01      0.28      0.01      0.43         0.01
  YS02004312YS02004309        0.61      0.61      1.03      0.01         0.01
  YS02004314YS02004312        0.37      0.37      0.61      0.01         0.01
  YS02004316YS02004314        0.34      0.34      0.37      0.28         0.28
  YS02004320YS02004319        0.01      0.01      0.25      0.01         0.01
  YS6404YS6401                0.01      0.01      0.01      0.73         0.01
  YSB1132YSB1135              0.63      0.63      0.70      0.01         0.01
  YSB1135YSB1138              0.70      0.70      0.74      0.01         0.01
  YSB1138YSB1141              0.74      0.74      0.84      0.39         0.39
  YSB1141YSB1145              0.81      0.81      0.84      0.38         0.36
  YSB1148YSB1151              0.94      0.94      1.27      0.01         0.01
  YSB1151YSB1154              1.06      1.06      1.51      0.01         0.01
  YSB1154YSB6556              1.12      1.12      1.51      0.40         0.01
  YSB1128YSB1132              0.61      0.61      0.63      0.01         0.01
  YSB1145YSB1148              0.84      0.84      0.94      0.01         0.01
  YSB1198YSB1195              0.29      0.29      0.58      0.01         0.01
  YSB1195YSB1192              0.58      0.58      0.61      0.01         0.01
  YSB1192YSB1189              0.61      0.61      0.65      0.01         0.01
  YSB1186YSB1183              0.71      0.71      0.84      0.01         0.01
  YSB1183YSB1180              0.84      0.84      0.89      0.22         0.23
  YSB1180YSB1177              0.89      0.89      1.34      0.01         0.01
  YSB1177YSB1174              1.34      1.34      1.55      0.23         0.23
  YSB1174YSB1171              1.27      1.27      1.59      0.15         0.16
  YSB1171HS02004479           0.94      0.94      1.47      0.01         0.01
  YS02004307HS02004052        0.01      0.01      0.17      0.01         0.01
  HS02004881HS02006253        0.79      0.79      1.55      0.01         0.01
  WS0200404049WS6136          0.15      0.15      0.25      0.01         0.01
  HS02003125WS02003215        1.51      1.51      1.53      0.01         0.01
  YS02001793JiankangQianchi        0.01      0.01      2.03      0.01         0.01
  YS02001757CaochengTiaoxuchi        0.11      0.12      0.82      0.09         0.07
  WS02004041WS6409            1.25      1.25      1.36      1.34         1.25
  WSF200WS02003060            0.24      0.24      0.54      0.01         0.01
  HS02004053WS02004407        0.16      0.16      1.27      0.01         0.01
  HS02003036HS02003028        0.17      0.17      0.28      0.01         0.01
  
  
  ***************
  Pumping Summary
  ***************
  
  ---------------------------------------------------------------------------------------------------------
                                                  Min       Avg       Max     Total     Power    % Time Off
                        Percent   Number of      Flow      Flow      Flow    Volume     Usage    Pump Curve
  Pump                 Utilized   Start-Ups       LPS       LPS       LPS  10^6 ltr     Kw-hr    Low   High
  ---------------------------------------------------------------------------------------------------------
  CaochengSewagePump1     91.64           1      0.00    200.00    200.00     1.343     10.29    0.0    0.0
  CaochengSewagePump2     61.02           1      0.00    200.00    200.00     0.894      7.13    0.0    0.0
  CaochengRainPump1       57.64           1      0.00    683.00    683.00     2.885      4.48    0.0   36.4
  CaochengRainPump2        0.00           0      0.00      0.00      0.00     0.000      0.00    0.0    0.0
  JiankangSewagePump      73.70           1      0.00    300.00    300.00     1.621     25.38    0.0    0.0
  JiankangRainPump1       37.68           5      0.00   1000.00   1000.00     2.761     18.17    0.0    0.0
  JiankangRainPump2        0.00           0      0.00      0.00      0.00     0.000      0.00    0.0    0.0
  XierchiSewagePump1      91.80           1      0.00     95.00     95.00     0.639      3.95    0.0    0.0
  XierchiSewagePump2      76.23           1      0.00     95.00     95.00     0.531      3.11    0.0    0.0
  XierchiSewagePump3       0.00           0      0.00      0.00      0.00     0.000      0.00    0.0    0.0
  XierchiSewagePump4       0.00           0      0.00      0.00      0.00     0.000      0.00    0.0    0.0
  

  Analysis begun on:  Sun Oct 23 04:23:46 2022
  Analysis ended on:  Sun Oct 23 04:55:16 2022
  Total elapsed time: 00:31:30