
  EPA STORM WATER MANAGEMENT MODEL - VERSION 5.1 (Build 5.3.0.dev0)
  --------------------------------------------------------------

  WARNING 04: minimum elevation drop used for Conduit WS02004404WS02004405
  WARNING 03: negative offset ignored for Link YS02001904YS02001907
  
  *********************************************************
  NOTE: The summary statistics displayed in this report are
  based on results found at every computational time step,  
  not just on results from each reporting time step.
  *********************************************************
  
  ****************
  Analysis Options
  ****************
  Flow Units ............... LPS
  Process Models:
    Rainfall/Runoff ........ YES
    RDII ................... NO
    Snowmelt ............... NO
    Groundwater ............ NO
    Flow Routing ........... YES
    Ponding Allowed ........ NO
    Water Quality .......... NO
  Infiltration Method ...... HORTON
  Flow Routing Method ...... DYNWAVE
  Surcharge Method ......... EXTRAN
  Starting Date ............ 03/31/2017 00:00:00
  Ending Date .............. 03/31/2017 03:00:00
  Antecedent Dry Days ...... 8.0
  Report Time Step ......... 00:00:30
  Wet Time Step ............ 00:01:00
  Dry Time Step ............ 00:01:00
  Routing Time Step ........ 30.00 sec
  Variable Time Step ....... YES
  Maximum Trials ........... 8
  Number of Threads ........ 6
  Head Tolerance ........... 0.001500 m
  
  
  **************************        Volume         Depth
  Runoff Quantity Continuity     hectare-m            mm
  **************************     ---------       -------
  Total Precipitation ......        10.619        90.112
  Evaporation Loss .........         0.000         0.000
  Infiltration Loss ........         0.691         5.864
  Surface Runoff ...........         8.001        67.900
  LID Drainage .............         0.720         6.107
  Final Storage ............         1.228        10.424
  Continuity Error (%) .....        -0.202
  
  
  **************************        Volume        Volume
  Flow Routing Continuity        hectare-m      10^6 ltr
  **************************     ---------     ---------
  Dry Weather Inflow .......         0.171         1.714
  Wet Weather Inflow .......         8.698        86.984
  Groundwater Inflow .......         0.000         0.000
  RDII Inflow ..............         0.000         0.000
  External Inflow ..........         0.033         0.330
  External Outflow .........         4.780        47.797
  Flooding Loss ............         3.884        38.844
  Evaporation Loss .........         0.000         0.000
  Exfiltration Loss ........         0.000         0.000
  Initial Stored Volume ....         0.303         3.031
  Final Stored Volume ......         0.570         5.704
  Continuity Error (%) .....        -0.311
  
  
  *************************
  Highest Continuity Errors
  *************************
  Node WS02005193 (58.55%)
  Node YS02001884 (29.02%)
  Node YS02001774 (13.31%)
  Node YS02004320 (6.86%)
  Node HS02003116 (5.86%)
  
  
  ***************************
  Time-Step Critical Elements
  ***************************
  Link YS02005655YS02005657 (45.62%)
  Link WS02006252WS02006251 (21.24%)
  Link WS02004041WS6409 (12.58%)
  Link WS02006280WS02006229 (2.53%)
  Link WS02003073WS02003076 (2.32%)
  
  
  ********************************
  Highest Flow Instability Indexes
  ********************************
  Link WS02006238WS02006235 (77)
  Link WS02003215WS02003116 (71)
  Link WS02003200WS02003201 (70)
  Link WS02004404WS02004405 (69)
  Link WS02003122WS02003187 (68)
  
  
  *************************
  Routing Time Step Summary
  *************************
  Minimum Time Step           :     0.50 sec
  Average Time Step           :     0.96 sec
  Maximum Time Step           :    30.00 sec
  Percent in Steady State     :    -0.00
  Average Iterations per Step :     6.48
  Percent Not Converging      :    36.57
  
  
  ***************************
  Subcatchment Runoff Summary
  ***************************
  
  ------------------------------------------------------------------------------------------------------------------------------
                            Total      Total      Total      Total     Imperv       Perv      Total       Total     Peak  Runoff
                           Precip      Runon       Evap      Infil     Runoff     Runoff     Runoff      Runoff   Runoff   Coeff
  Subcatchment                 mm         mm         mm         mm         mm         mm         mm    10^6 ltr      LPS
  ------------------------------------------------------------------------------------------------------------------------------
  sub0                      90.11       0.00       0.00      10.50      41.49       2.68      61.93        0.05    31.87   0.687
  sub1                      90.11       0.00       0.00       5.81      58.42       6.15      73.23        0.49   300.81   0.813
  sub2                      90.11       0.00       0.00       6.38      45.85      20.33      71.58        0.67   338.98   0.794
  sub3                      90.11       0.00       0.00       5.36      48.49      20.14      71.82        1.62   762.20   0.797
  sub4                      90.11       0.00       0.00       3.01      67.05       7.00      77.50        1.62   834.07   0.860
  sub5                      90.11       0.00       0.00       7.71      52.17       3.38      68.25        0.77   461.46   0.757
  sub6                      90.11       0.00       0.00       5.32      61.25       3.97      73.58        1.90  1119.92   0.817
  sub7                      90.11       0.00       0.00       4.43      65.15       5.52      77.07        0.26   177.96   0.855
  sub8                      90.11       0.00       0.00       2.78      71.46       6.05      80.89        0.52   348.32   0.898
  sub9                      90.11       0.00       0.00       3.38      69.02       5.85      79.35        0.38   253.72   0.881
  sub10                     90.11       0.00       0.00       6.19      58.04       4.33      72.16        0.80   494.83   0.801
  sub11                     90.11       0.00       0.00       5.92      59.41       4.43      73.13        0.85   557.22   0.812
  sub12                     90.11       0.00       0.00       7.93      50.13       6.38      68.87        0.60   404.01   0.764
  sub13                     90.11       0.00       0.00       4.14      55.24      22.78      79.23        0.94   572.27   0.879
  sub14                     90.11       0.00       0.00       4.23      65.62       5.56      77.23        0.74   481.42   0.857
  sub15                     90.11       0.00       0.00       7.18      46.58      16.24      71.19        1.22   714.72   0.790
  sub16                     90.11       0.00       0.00       6.72      47.37      19.22      73.46        0.77   493.90   0.815
  sub17                     90.11       0.00       0.00       7.35      45.55      17.67      71.61        0.61   386.66   0.795
  sub18                     90.11       0.00       0.00       4.87      63.49       5.38      76.10        0.61   421.37   0.844
  sub19                     90.11       0.00       0.00       8.68      41.33      15.35      68.00        0.22   131.68   0.755
  sub20                     90.11       0.00       0.00      14.95      22.73       1.92      50.43        0.35   165.59   0.560
  sub21                     90.11       0.00       0.00       5.05      61.77       7.18      76.03        0.39   270.78   0.844
  sub22                     90.11       0.00       0.00       5.52      46.33      27.21      75.82        4.79  2709.72   0.841
  sub23                     90.11       0.00       0.00       5.97      47.89      22.60      75.02        3.58  2142.66   0.833
  sub24                     90.11       0.00       0.00       5.18      60.43       8.36      75.81        2.72  1883.35   0.841
  sub25                     90.11       0.00       0.00       0.73      81.63       5.27      86.90        1.13   888.22   0.964
  sub26                     90.11       0.00       0.00       7.57      48.19      12.89      71.19        1.01   739.79   0.790
  sub27                     90.11       0.00       0.00       5.00      62.51       5.29      75.27        1.09   699.29   0.835
  sub28                     90.11       0.00       0.00       4.60      64.41       4.81      76.11        1.19   765.09   0.845
  sub29                     90.11       0.00       0.00       5.72      59.23       4.43      72.60        1.17   675.82   0.806
  sub30                     90.11       0.00       0.00       5.20      62.71       4.67      75.37        1.70  1204.89   0.836
  sub31                     90.11       0.00       0.00       7.08      52.27       9.09      71.55        1.52  1061.22   0.794
  sub32                     90.11       0.00       0.00       6.76      56.14       4.19      71.17        1.42   937.10   0.790
  sub33                     90.11       0.00       0.00       5.55      59.58       7.58      75.03        1.37   977.80   0.833
  sub34                     90.11       0.00       0.00       7.98      36.09      29.45      71.99        1.61  1010.15   0.799
  sub35                     90.11       0.00       0.00      17.84      11.06       0.82      42.99        0.15    52.98   0.477
  sub36                     90.11       0.00       0.00       2.31      68.50      16.32      84.82        0.74   576.91   0.941
  sub37                     90.11       0.00       0.00       6.24      46.69      24.90      76.31        0.58   421.86   0.847
  sub38                     90.11       0.00       0.00       7.22      45.27      20.50      73.35        1.39  1027.08   0.814
  sub39                     90.11       0.00       0.00       4.53      65.79       4.90      77.46        0.82   632.29   0.860
  sub40                     90.11       0.00       0.00       4.22      67.12       5.00      78.30        0.91   708.31   0.869
  sub41                     90.11       0.00       0.00       5.59      58.48       9.47      75.43        1.45  1063.34   0.837
  sub42                     90.11       0.00       0.00       4.84      64.16       5.43      76.76        0.77   584.12   0.852
  sub43                     90.11       0.00       0.00       6.01      47.61      23.92      75.95        0.62   405.61   0.843
  sub44                     90.11       0.00       0.00       5.98      59.30       3.84      72.70        0.82   522.50   0.807
  sub45                     90.11       0.00       0.00       6.89      52.57       9.09      71.48        1.31   843.42   0.793
  sub46                     90.11       0.00       0.00       7.40      30.69      41.32      74.06        0.52   291.27   0.822
  sub47                     90.11       0.00       0.00       5.99      59.30       4.42      73.14        0.56   376.71   0.812
  sub48                     90.11       0.00       0.00       3.50      68.83       5.83      79.37        0.61   420.73   0.881
  sub49                     90.11       0.00       0.00       6.01      58.97       4.40      72.83        0.66   430.58   0.808
  sub50                     90.11       0.00       0.00       4.77      63.97       4.77      75.93        0.53   352.67   0.843
  sub51                     90.11       0.00       0.00       3.34      70.07       5.23      79.87        0.38   268.92   0.886
  sub52                     90.11       0.00       0.00       8.02      51.14       3.31      67.71        0.73   454.29   0.751
  sub53                     90.11       0.00       0.00       6.67      56.50       4.21      71.39        0.72   478.05   0.792
  sub54                     90.11       0.00       0.00       6.03      58.84       3.81      72.30        0.43   263.77   0.802
  sub55                     90.11       0.00       0.00       4.78      63.66       4.75      75.63        0.60   384.40   0.839
  sub56                     90.11       0.00       0.00       5.12      57.60      11.16      74.84        1.06   606.89   0.831
  sub57                     90.11       0.00       0.00       3.25      59.38      21.18      80.56        0.52   307.39   0.894
  sub58                     90.11       0.00       0.00       8.70      21.72      40.98      65.61        2.43   986.83   0.728
  sub59                     90.11       0.00       0.00       9.16      18.32      38.29      59.75        1.37   483.49   0.663
  sub60                     90.11       0.00       0.00       4.19      64.89       7.54      77.90        1.02   696.76   0.865
  sub61                     90.11       0.00       0.00       5.86      56.60       9.80      74.24        1.36   913.21   0.824
  sub62                     90.11       0.00       0.00       5.14      62.10       4.64      74.62        2.04  1278.16   0.828
  sub67                     90.11       0.00       0.00       8.24      49.89       3.72      67.15        1.25   755.04   0.745
  sub68                     90.11       0.00       0.00       5.62      58.36       8.05      74.26        2.04  1310.99   0.824
  sub71                     90.11       0.00       0.00       3.85      66.62       4.98      77.11        2.02  1199.28   0.856
  sub72                     90.11       0.00       0.00       6.48      56.11       3.65      70.22        0.97   520.77   0.779
  sub73                     90.11       0.00       0.00       9.67      41.22       9.30      65.20        0.06    43.02   0.724
  sub74                     90.11       0.00       0.00       7.62      44.97      17.73      71.64        0.12    80.22   0.795
  sub75                     90.11       0.00       0.00       6.29      50.47      18.18      75.17        0.17   121.33   0.834
  sub76                     90.11       0.00       0.00       4.94      60.20      11.21      77.30        0.19   139.37   0.858
  sub77                     90.11       0.00       0.00       6.49      54.67       9.52      73.24        0.12    84.53   0.813
  sub78                     90.11       0.00       0.00       8.32      48.58       6.19      67.85        0.19   123.71   0.753
  sub79                     90.11       0.00       0.00       6.70      51.05      13.53      72.95        0.19   127.65   0.810
  sub80                     90.11       0.00       0.00       5.79      50.80      20.85      76.57        0.22   159.21   0.850
  sub81                     90.11       0.00       0.00       6.05      48.00      23.23      75.93        0.23   156.09   0.843
  sub82                     90.11       0.00       0.00       6.09      47.95      23.32      76.06        0.23   157.90   0.844
  sub83                     90.11       0.00       0.00       6.93      44.82      22.83      74.06        0.25   172.94   0.822
  sub84                     90.11       0.00       0.00       6.15      48.49      21.50      75.29        0.41   269.03   0.836
  sub85                     90.11       0.00       0.00      10.62      36.66       9.75      62.62        0.28   169.52   0.695
  sub86                     90.11       0.00       0.00       6.41      51.34      15.09      73.89        0.36   242.55   0.820
  sub87                     90.11       0.00       0.00       3.67      56.94      25.32      82.26        0.25   175.57   0.913
  sub88                     90.11       0.00       0.00       5.79      50.33      21.56      76.61        0.23   164.11   0.850
  sub89                     90.11       0.00       0.00       5.85      51.58      19.44      76.43        0.20   148.90   0.848
  sub90                     90.11       0.00       0.00       5.71      53.71      16.70      76.26        0.19   136.30   0.846
  sub91                     90.11       0.00       0.00       6.74      50.15      15.68      73.78        0.13    99.87   0.819
  sub92                     90.11       0.00       0.00       7.85      44.72      16.99      71.30        0.11    80.97   0.791
  sub93                     90.11       0.00       0.00       5.16      54.21      20.58      78.76        0.14   114.92   0.874
  sub94                     90.11       0.00       0.00       6.43      49.62      18.78      75.04        0.16   121.46   0.833
  sub95                     90.11       0.00       0.00       3.04      62.56      21.54      84.10        0.13   101.70   0.933
  sub96                     90.11       0.00       0.00       2.31      68.91      16.52      85.43        0.16   136.77   0.948
  sub97                     90.11       0.00       0.00       6.40      34.55      45.30      79.86        0.19   150.06   0.886
  sub98                     90.11       0.00       0.00       7.55      24.75      51.33      76.07        0.25   148.56   0.844
  sub99                     90.11       0.00       0.00       8.29      18.53      53.36      71.89        0.25   118.70   0.798
  sub100                    90.11       0.00       0.00       8.29      18.49      50.87      69.36        0.24   101.69   0.770
  sub101                    90.11       0.00       0.00       8.29      18.48      50.61      69.09        0.23    96.60   0.767
  sub102                    90.11       0.00       0.00       7.97      21.05      46.83      67.89        0.20    82.98   0.753
  sub103                    90.11       0.00       0.00       8.18      19.30      46.94      66.24        0.31   121.53   0.735
  sub104                    90.11       0.00       0.00       8.18      19.29      46.40      65.69        0.34   131.44   0.729
  sub105                    90.11       0.00       0.00       8.50      16.69      48.11      64.80        0.37   134.86   0.719
  sub106                    90.11       0.00       0.00       8.29      18.46      49.08      67.54        0.35   136.50   0.750
  sub107                    90.11       0.00       0.00       8.50      16.74      52.17      68.91        0.49   200.51   0.765
  sub108                    90.11       0.00       0.00       8.60      15.90      55.71      71.61        0.67   312.83   0.795
  sub109                    90.11       0.00       0.00       6.71      31.68      44.51      76.18        1.09   619.19   0.845
  sub110                    90.11       0.00       0.00       1.89      71.54      13.26      84.80        1.78  1309.17   0.941
  sub111                    90.11       0.00       0.00       2.73      64.67      18.96      83.63        0.72   519.64   0.928
  sub112                    90.11       0.00       0.00       2.20      69.05      15.44      84.49        0.67   495.68   0.938
  sub113                    90.11       0.00       0.00       1.47      75.12      10.39      85.52        0.59   445.04   0.949
  sub114                    90.11       0.00       0.00       1.36      76.02       9.67      85.69        0.57   429.13   0.951
  sub115                    90.11       0.00       0.00       1.26      76.83       8.93      85.76        0.63   473.99   0.952
  sub116                    90.11       0.00       0.00       4.20      52.40      28.26      80.66        0.15    97.12   0.895
  sub117                    90.11       0.00       0.00       4.30      51.65      29.23      80.88        0.37   247.98   0.898
  

  ***********************
  LID Performance Summary
  ***********************

  --------------------------------------------------------------------------------------------------------------------
                                         Total      Evap     Infil   Surface    Drain    Initial     Final  Continuity
                                        Inflow      Loss      Loss   Outflow   Outflow   Storage   Storage       Error
  Subcatchment      LID Control             mm        mm        mm        mm        mm        mm        mm           %
  --------------------------------------------------------------------------------------------------------------------
  sub0              PermeablePavement     90.11      0.00     20.50      0.00     35.98      0.00     34.17       -0.60
  sub1              PermeablePavement     90.11      0.00     20.50      0.00     35.98      0.00     34.17       -0.60
  sub2              PermeablePavement     90.11      0.00     20.50      0.00     35.98      0.00     34.17       -0.60
  sub3              PermeablePavement     90.11      0.00     20.50      0.00     35.98      0.00     34.17       -0.60
  sub4              PermeablePavement     90.11      0.00     20.50      0.00     35.98      0.00     34.17       -0.60
  sub5              PermeablePavement     90.11      0.00     20.50      0.00     35.98      0.00     34.17       -0.60
  sub6              PermeablePavement     90.11      0.00     20.50      0.00     35.98      0.00     34.17       -0.60
  sub7              PermeablePavement     90.11      0.00     20.50      0.00     35.98      0.00     34.17       -0.60
  sub8              PermeablePavement     90.11      0.00     20.50      0.00     35.98      0.00     34.17       -0.60
  sub9              PermeablePavement     90.11      0.00     20.50      0.00     35.98      0.00     34.17       -0.60
  sub10             PermeablePavement     90.11      0.00     20.50      0.00     35.98      0.00     34.17       -0.60
  sub11             PermeablePavement     90.11      0.00     20.50      0.00     35.98      0.00     34.17       -0.60
  sub12             PermeablePavement     90.11      0.00     20.50      0.00     35.98      0.00     34.17       -0.60
  sub13             PermeablePavement     90.11      0.00     20.50      0.00     35.98      0.00     34.17       -0.60
  sub14             PermeablePavement     90.11      0.00     20.50      0.00     35.98      0.00     34.17       -0.60
  sub15             PermeablePavement     90.11      0.00     20.50      0.00     35.98      0.00     34.17       -0.60
  sub16             PermeablePavement     90.11      0.00     20.50      0.00     35.98      0.00     34.17       -0.60
  sub17             PermeablePavement     90.11      0.00     20.50      0.00     35.98      0.00     34.17       -0.60
  sub18             PermeablePavement     90.11      0.00     20.50      0.00     35.98      0.00     34.17       -0.60
  sub19             PermeablePavement     90.11      0.00     20.50      0.00     35.98      0.00     34.17       -0.60
  sub20             PermeablePavement     90.11      0.00     20.50      0.00     35.98      0.00     34.17       -0.60
  sub20             PermeablePavement     90.11      0.00     20.50      0.00     35.98      0.00     34.17       -0.60
  sub21             PermeablePavement     90.11      0.00     20.50      0.00     35.98      0.00     34.17       -0.60
  sub22             PermeablePavement     90.11      0.00     20.50      0.00     35.98      0.00     34.17       -0.60
  sub23             PermeablePavement     90.11      0.00     20.50      0.00     35.98      0.00     34.17       -0.60
  sub24             PermeablePavement     90.11      0.00     20.50      0.00     35.98      0.00     34.17       -0.60
  sub26             PermeablePavement     90.11      0.00     20.50      0.00     35.98      0.00     34.17       -0.60
  sub27             PermeablePavement     90.11      0.00     20.50      0.00     35.98      0.00     34.17       -0.60
  sub28             PermeablePavement     90.11      0.00     20.50      0.00     35.98      0.00     34.17       -0.60
  sub29             PermeablePavement     90.11      0.00     20.50      0.00     35.98      0.00     34.17       -0.60
  sub30             PermeablePavement     90.11      0.00     20.50      0.00     35.98      0.00     34.17       -0.60
  sub31             PermeablePavement     90.11      0.00     20.50      0.00     35.98      0.00     34.17       -0.60
  sub32             PermeablePavement     90.11      0.00     20.50      0.00     35.98      0.00     34.17       -0.60
  sub33             PermeablePavement     90.11      0.00     20.50      0.00     35.98      0.00     34.17       -0.60
  sub34             PermeablePavement     90.11      0.00     20.50      0.00     35.98      0.00     34.17       -0.60
  sub35             PermeablePavement     90.11      0.00     20.50      0.00     35.98      0.00     34.17       -0.60
  sub35             PermeablePavement     90.11      0.00     20.50      0.00     35.98      0.00     34.17       -0.60
  sub37             PermeablePavement     90.11      0.00     20.50      0.00     35.98      0.00     34.17       -0.60
  sub38             PermeablePavement     90.11      0.00     20.50      0.00     35.98      0.00     34.17       -0.60
  sub39             PermeablePavement     90.11      0.00     20.50      0.00     35.98      0.00     34.17       -0.60
  sub40             PermeablePavement     90.11      0.00     20.50      0.00     35.98      0.00     34.17       -0.60
  sub41             PermeablePavement     90.11      0.00     20.50      0.00     35.98      0.00     34.17       -0.60
  sub42             PermeablePavement     90.11      0.00     20.50      0.00     35.98      0.00     34.17       -0.60
  sub43             PermeablePavement     90.11      0.00     20.50      0.00     35.98      0.00     34.17       -0.60
  sub44             PermeablePavement     90.11      0.00     20.50      0.00     35.98      0.00     34.17       -0.60
  sub45             PermeablePavement     90.11      0.00     20.50      0.00     35.98      0.00     34.17       -0.60
  sub46             PermeablePavement     90.11      0.00     20.50      0.00     35.98      0.00     34.17       -0.60
  sub47             PermeablePavement     90.11      0.00     20.50      0.00     35.98      0.00     34.17       -0.60
  sub48             PermeablePavement     90.11      0.00     20.50      0.00     35.98      0.00     34.17       -0.60
  sub49             PermeablePavement     90.11      0.00     20.50      0.00     35.98      0.00     34.17       -0.60
  sub50             PermeablePavement     90.11      0.00     20.50      0.00     35.98      0.00     34.17       -0.60
  sub51             PermeablePavement     90.11      0.00     20.50      0.00     35.98      0.00     34.17       -0.60
  sub52             PermeablePavement     90.11      0.00     20.50      0.00     35.98      0.00     34.17       -0.60
  sub53             PermeablePavement     90.11      0.00     20.50      0.00     35.98      0.00     34.17       -0.60
  sub54             PermeablePavement     90.11      0.00     20.50      0.00     35.98      0.00     34.17       -0.60
  sub55             PermeablePavement     90.11      0.00     20.50      0.00     35.98      0.00     34.17       -0.60
  sub56             PermeablePavement     90.11      0.00     20.50      0.00     35.98      0.00     34.17       -0.60
  sub58             PermeablePavement     90.11      0.00     20.50      0.00     35.98      0.00     34.17       -0.60
  sub59             PermeablePavement     90.11      0.00     20.50      0.00     35.98      0.00     34.17       -0.60
  sub60             PermeablePavement     90.11      0.00     20.50      0.00     35.98      0.00     34.17       -0.60
  sub61             PermeablePavement     90.11      0.00     20.50      0.00     35.98      0.00     34.17       -0.60
  sub62             PermeablePavement     90.11      0.00     20.50      0.00     35.98      0.00     34.17       -0.60
  sub67             PermeablePavement     90.11      0.00     20.50      0.00     35.98      0.00     34.17       -0.60
  sub68             PermeablePavement     90.11      0.00     20.50      0.00     35.98      0.00     34.17       -0.60
  sub71             PermeablePavement     90.11      0.00     20.50      0.00     35.98      0.00     34.17       -0.60
  sub72             PermeablePavement     90.11      0.00     20.50      0.00     35.98      0.00     34.17       -0.60
  sub73             PermeablePavement     90.11      0.00     20.50      0.00     35.98      0.00     34.17       -0.60
  sub74             PermeablePavement     90.11      0.00     20.50      0.00     35.98      0.00     34.17       -0.60
  sub75             PermeablePavement     90.11      0.00     20.50      0.00     35.98      0.00     34.17       -0.60
  sub76             PermeablePavement     90.11      0.00     20.50      0.00     35.98      0.00     34.17       -0.60
  sub77             PermeablePavement     90.11      0.00     20.50      0.00     35.98      0.00     34.17       -0.60
  sub78             PermeablePavement     90.11      0.00     20.50      0.00     35.98      0.00     34.17       -0.60
  sub79             PermeablePavement     90.11      0.00     20.50      0.00     35.98      0.00     34.17       -0.60
  sub80             PermeablePavement     90.11      0.00     20.50      0.00     35.98      0.00     34.17       -0.60
  sub81             PermeablePavement     90.11      0.00     20.50      0.00     35.98      0.00     34.17       -0.60
  sub82             PermeablePavement     90.11      0.00     20.50      0.00     35.98      0.00     34.17       -0.60
  sub83             PermeablePavement     90.11      0.00     20.50      0.00     35.98      0.00     34.17       -0.60
  sub84             PermeablePavement     90.11      0.00     20.50      0.00     35.98      0.00     34.17       -0.60
  sub85             PermeablePavement     90.11      0.00     20.50      0.00     35.98      0.00     34.17       -0.60
  sub86             PermeablePavement     90.11      0.00     20.50      0.00     35.98      0.00     34.17       -0.60
  sub88             PermeablePavement     90.11      0.00     20.50      0.00     35.98      0.00     34.17       -0.60
  sub89             PermeablePavement     90.11      0.00     20.50      0.00     35.98      0.00     34.17       -0.60
  sub90             PermeablePavement     90.11      0.00     20.50      0.00     35.98      0.00     34.17       -0.60
  sub91             PermeablePavement     90.11      0.00     20.50      0.00     35.98      0.00     34.17       -0.60
  sub92             PermeablePavement     90.11      0.00     20.50      0.00     35.98      0.00     34.17       -0.60
  sub93             PermeablePavement     90.11      0.00     20.50      0.00     35.98      0.00     34.17       -0.60
  sub94             PermeablePavement     90.11      0.00     20.50      0.00     35.98      0.00     34.17       -0.60
  
  ******************
  Node Depth Summary
  ******************
  
  ---------------------------------------------------------------------------------
                                 Average  Maximum  Maximum  Time of Max    Reported
                                   Depth    Depth      HGL   Occurrence   Max Depth
  Node                 Type       Meters   Meters   Meters  days hr:min      Meters
  ---------------------------------------------------------------------------------
  WS02001211           JUNCTION     1.01     2.50     7.33     0  00:44        1.89
  WS02001212           JUNCTION     0.78     2.16     7.23     0  00:44        1.61
  WS02001213           JUNCTION     1.02     2.40     7.16     0  00:44        1.88
  WS02003069           JUNCTION     0.98     1.69     6.27     0  00:48        1.68
  WS02003072           JUNCTION     1.04     1.59     5.96     0  00:48        1.58
  WS02003073           JUNCTION     1.26     1.70     5.77     0  00:48        1.70
  WS02003076           JUNCTION     1.00     1.36     5.58     0  00:47        1.36
  WS02003060           JUNCTION     0.86     1.78     6.71     0  00:44        1.66
  WS02003066           JUNCTION     0.51     1.17     6.72     0  00:47        1.15
  WS02003059           JUNCTION     1.09     2.11     6.80     0  00:44        1.91
  WS02003115           JUNCTION     2.04     2.76     9.62     0  00:33        2.73
  WS02003116           JUNCTION     2.18     3.03     9.74     0  00:24        2.94
  WS02003118           JUNCTION     2.16     2.90     9.52     0  00:24        2.90
  WS02003215           JUNCTION     2.06     2.80     9.66     0  00:33        2.80
  WS02003110           JUNCTION     1.68     2.35     9.61     0  00:46        2.35
  WS02003111           JUNCTION     1.80     2.35     9.44     0  00:33        2.35
  WS02005155           JUNCTION     1.66     2.46     9.77     0  00:46        2.45
  WS02005154           JUNCTION     1.42     2.35     9.99     0  00:47        2.35
  WS02005193           JUNCTION     1.51     3.22    11.04     0  00:42        2.96
  WS02005196           JUNCTION     1.48     3.31    11.16     0  00:28        2.93
  WS02003067           JUNCTION     0.84     1.48     6.80     0  00:47        1.48
  WS02004401           JUNCTION     1.49     2.49     8.49     0  00:46        2.46
  WS02004402           JUNCTION     1.49     2.50     8.46     0  00:46        2.46
  WS02004403           JUNCTION     1.47     2.51     8.44     0  00:46        2.47
  WS02004404           JUNCTION     1.51     2.57     8.42     0  00:46        2.52
  WS02004406           JUNCTION     1.45     2.52     8.35     0  00:46        2.49
  WS02004409           JUNCTION     1.22     2.30     8.07     0  00:47        2.30
  WS02004410           JUNCTION     1.11     2.10     7.82     0  00:47        2.09
  WS02004411           JUNCTION     1.03     1.89     7.57     0  00:47        1.88
  WS02004412           JUNCTION     0.94     1.64     7.28     0  00:47        1.63
  WS02004413           JUNCTION     0.97     1.55     7.02     0  00:47        1.55
  WS02004405           JUNCTION     1.49     2.55     8.40     0  00:46        2.51
  WS02006109           JUNCTION     2.00     2.64     9.26     0  00:40        2.64
  WS02006110           JUNCTION     1.80     2.48     9.07     0  00:55        2.48
  WS02006111           JUNCTION     1.19     2.00     8.70     0  00:45        1.99
  WS02006112           JUNCTION     1.80     2.68     8.56     0  00:00        2.68
  WS02006113           JUNCTION     1.27     2.00     8.89     0  00:45        1.99
  WS02006115           JUNCTION     1.47     2.40     8.54     0  00:45        2.38
  WS02006116           JUNCTION     1.51     2.47     8.51     0  00:46        2.45
  WS02006230           JUNCTION     2.07     2.65     9.39     0  00:37        2.65
  WS02006231           JUNCTION     1.66     2.19     9.31     0  00:55        2.19
  WS02006232           JUNCTION     1.70     2.18     9.22     0  00:37        2.18
  WS02006234           JUNCTION     1.53     1.96     9.12     0  00:35        1.96
  WS02006235           JUNCTION     1.51     1.93     9.10     0  01:08        1.93
  WS02006238           JUNCTION     1.52     1.94     9.08     0  00:32        1.93
  WS02006240           JUNCTION     1.29     1.63     8.92     0  00:32        1.62
  WS02006242           JUNCTION     1.27     1.55     8.82     0  00:25        1.55
  WS02006243           JUNCTION     1.11     1.48     8.90     0  00:26        1.36
  WS02006245           JUNCTION     1.03     1.27     8.75     0  01:43        1.27
  WS02006247           JUNCTION     1.01     1.23     8.73     0  01:37        1.23
  WS02006248           JUNCTION     0.92     1.10     8.69     0  00:27        1.10
  WS02006249           JUNCTION     0.92     1.09     8.69     0  00:27        1.09
  WS02006239           JUNCTION     1.41     1.79     9.00     0  00:32        1.79
  WS02006251           JUNCTION     1.41     2.21     9.88     0  00:42        2.16
  WS02006252           JUNCTION     1.00     1.50     9.74     0  00:42        1.50
  WS02006253           JUNCTION     1.68     3.52    11.16     0  00:42        3.14
  WS02006256           JUNCTION     1.89     2.35     9.28     0  00:17        2.35
  WS02004138           JUNCTION     0.12     0.14     7.39     0  00:33        0.14
  WS02004139           JUNCTION     0.95     2.45     7.36     0  00:44        1.83
  WS02004407           JUNCTION     0.87     2.06     8.37     0  00:45        1.97
  WS02006228           JUNCTION     2.22     3.03     9.68     0  00:47        3.02
  WS02006229           JUNCTION     2.32     3.23     9.92     0  00:45        3.22
  WS02006280           JUNCTION     1.03     1.75    10.02     0  00:45        1.74
  WS02006284           JUNCTION     1.19     1.95    10.35     0  00:45        1.94
  WS02006287           JUNCTION     0.93     1.74    10.70     0  00:45        1.74
  WS02003091           JUNCTION     2.95     4.43    10.23     0  00:00        3.91
  WS02003203           JUNCTION     2.89     3.83     9.82     0  00:00        3.83
  WS6145               JUNCTION     0.40     2.33    10.43     0  00:47        2.31
  WS6147               JUNCTION     0.33     2.25    10.53     0  00:46        2.16
  WS6150               JUNCTION     0.32     2.23    10.56     0  00:46        2.12
  WS6152               JUNCTION     0.33     2.20    10.54     0  00:46        2.14
  WS6155               JUNCTION     0.29     2.10    10.50     0  00:46        2.10
  WS6156               JUNCTION     0.27     2.05    10.52     0  00:46        2.05
  WS6136               JUNCTION     0.35     1.90    10.85     0  00:47        1.90
  WS6140               JUNCTION     0.44     2.46    10.40     0  00:47        2.44
  WS6142               JUNCTION     0.39     2.34    10.42     0  00:47        2.31
  WS6325               JUNCTION     0.68     2.74    10.39     0  00:47        2.72
  WS6327               JUNCTION     0.53     2.58    10.39     0  00:48        2.56
  WS6329               JUNCTION     0.48     2.52    10.40     0  00:48        2.49
  WS6332               JUNCTION     0.40     2.52    10.55     0  00:45        2.35
  WS6158               JUNCTION     0.25     2.05    10.59     0  00:46        1.97
  WS6335               JUNCTION     0.40     2.59    10.66     0  00:45        2.30
  WS6338               JUNCTION     0.34     2.55    10.75     0  00:45        2.18
  WS6340               JUNCTION     0.30     2.50    10.84     0  00:45        2.05
  WS6342               JUNCTION     0.23     2.50    11.10     0  00:45        1.78
  WS6135               JUNCTION     0.83     2.89    10.39     0  00:47        2.88
  WS6396               JUNCTION     0.52     2.02     9.57     0  00:47        2.00
  WS6399               JUNCTION     0.32     1.37     8.80     0  00:47        1.36
  WS02003082           JUNCTION     1.41     1.93     7.00     0  00:47        1.92
  WS02003077           JUNCTION     0.49     0.84     5.85     0  00:47        0.84
  WS02003080           JUNCTION     0.91     1.30     6.24     0  00:47        1.29
  WS02003083           JUNCTION     1.80     2.41     7.44     0  00:48        2.40
  WS02003084           JUNCTION     1.95     2.60     7.70     0  00:48        2.59
  WS02003085           JUNCTION     2.03     2.72     7.89     0  00:47        2.71
  WS02003086           JUNCTION     2.28     3.02     8.22     0  00:51        3.02
  WS02003087           JUNCTION     2.56     3.36     8.57     0  00:53        3.35
  WS02003088           JUNCTION     2.76     4.14     9.43     0  00:00        4.07
  WS02003089           JUNCTION     2.89     4.34     9.80     0  00:00        4.02
  WS02003090           JUNCTION     3.11     4.12     9.55     0  00:00        4.05
  WS02003081           JUNCTION     1.14     1.61     6.66     0  00:47        1.60
  WS02003122           JUNCTION     2.35     3.30     9.67     0  00:23        3.10
  WS02003187           JUNCTION     2.37     3.11     9.44     0  00:23        3.11
  WS02003188           JUNCTION     2.34     2.97     9.23     0  00:23        2.97
  WS02003190           JUNCTION     2.32     2.84     9.04     0  00:30        2.84
  WS02003193           JUNCTION     2.31     2.85     9.09     0  00:23        2.85
  WS02003195           JUNCTION     2.34     2.93     9.18     0  00:23        2.93
  WS02003196           JUNCTION     2.46     3.13     9.31     0  00:45        3.12
  WS02003198           JUNCTION     2.50     3.21     9.40     0  00:45        3.21
  WS02003200           JUNCTION     2.27     2.99     9.42     0  00:30        2.93
  WS02003201           JUNCTION     2.54     3.22     9.36     0  00:30        3.22
  WS02003202           JUNCTION     2.69     4.17    10.23     0  00:00        3.48
  WS02004041           JUNCTION     0.67     0.98     5.34     0  00:48        0.98
  WSA6400              JUNCTION     1.17     2.43     8.27     0  00:46        2.41
  WS6400               JUNCTION     0.49     1.70     8.36     0  00:46        1.68
  WSF208               JUNCTION     0.87     1.95     8.04     0  00:46        1.94
  WSF207               JUNCTION     0.76     1.69     7.83     0  00:47        1.69
  WSF206               JUNCTION     0.84     1.74     7.67     0  00:47        1.74
  WSF205               JUNCTION     0.77     1.62     7.52     0  00:47        1.60
  WSF204               JUNCTION     1.29     2.17     7.33     0  00:47        2.16
  WSF203               JUNCTION     0.66     1.37     7.07     0  00:47        1.35
  WSF202               JUNCTION     0.58     1.19     6.92     0  00:47        1.17
  WSF201               JUNCTION     0.49     1.05     6.77     0  00:47        1.03
  WSF200               JUNCTION     0.65     1.46     6.69     0  00:47        1.44
  HS02004901           JUNCTION     0.76     1.42    11.24     0  00:40        1.42
  HS02004881           JUNCTION     0.60     2.15    11.18     0  00:42        1.86
  HS02004876           JUNCTION     0.73     2.19    11.22     0  00:42        2.12
  HS02004870           JUNCTION     0.63     2.10    11.39     0  00:42        2.02
  HS02004862           JUNCTION     0.63     2.00    11.38     0  00:42        2.00
  HS02004856           JUNCTION     0.66     2.07    11.50     0  00:42        2.07
  HS02004852           JUNCTION     0.61     2.07    11.59     0  00:42        2.03
  HS02004848           JUNCTION     0.58     2.07    11.67     0  00:42        2.07
  HS02004842           JUNCTION     0.90     2.22    11.49     0  00:42        2.22
  HS02004837           JUNCTION     0.61     2.04    11.62     0  00:41        1.98
  HS02004830           JUNCTION     0.69     2.03    11.50     0  00:43        2.00
  HS02004824           JUNCTION     0.74     2.01    11.41     0  00:43        2.01
  HS02004817           JUNCTION     1.22     2.44    11.29     0  00:43        2.41
  HS02004807           JUNCTION     0.90     1.92    11.09     0  00:43        1.92
  HS02004802           JUNCTION     0.90     1.81    10.94     0  00:44        1.80
  HS02004799           JUNCTION     1.00     1.76    10.97     0  00:41        1.76
  HS02004792           JUNCTION     0.80     1.60    11.12     0  00:40        1.60
  HS02004788           JUNCTION     0.61     1.42    11.32     0  00:40        1.42
  HS02004785           JUNCTION     0.65     1.49    11.39     0  00:40        1.40
  HS02004777           JUNCTION     0.77     1.48    11.28     0  00:40        1.48
  HS02004770           JUNCTION     0.76     1.42    11.25     0  00:40        1.42
  HS02004480           JUNCTION     0.89     1.67    10.91     0  00:43        1.64
  HS02004479           JUNCTION     0.93     1.69    10.90     0  00:43        1.67
  HS02004478           JUNCTION     0.79     1.60    10.82     0  00:44        1.59
  HS02004053           JUNCTION     0.28     1.90    10.67     0  00:45        1.09
  HS02004052           JUNCTION     0.35     1.50    11.15     0  00:45        1.38
  HS02004049           JUNCTION     0.21     1.06    11.74     0  00:46        0.86
  HS02004048           JUNCTION     0.48     1.70    12.60     0  00:44        1.70
  HS02004046           JUNCTION     0.43     1.67    13.39     0  00:45        1.53
  HS02004043           JUNCTION     0.21     1.63    14.33     0  00:45        1.36
  HS02004041           JUNCTION     0.13     0.35    15.80     0  00:46        0.35
  HS02004038           JUNCTION     0.13     0.33    19.02     0  00:47        0.33
  HS02004036           JUNCTION     0.00     0.00    22.46     0  00:00        0.00
  HS02004034           JUNCTION     0.00     0.00    26.83     0  00:00        0.00
  HS02004028           JUNCTION     0.20     0.51    37.36     0  00:44        0.51
  HS02004027           JUNCTION     0.16     0.34    36.47     0  00:44        0.33
  HS02004026           JUNCTION     0.16     0.35    35.75     0  00:44        0.34
  HS02004024           JUNCTION     0.17     0.42    34.63     0  00:44        0.41
  HS02004022           JUNCTION     0.24     0.80    33.84     0  00:43        0.80
  HS02004021           JUNCTION     0.28     0.81    32.54     0  00:42        0.81
  HS02004019           JUNCTION     0.35     0.80    31.76     0  00:41        0.80
  HS02004018           JUNCTION     0.23     0.60    33.81     0  00:44        0.60
  HS02004017           JUNCTION     0.22     0.53    34.37     0  00:44        0.53
  HS02004013           JUNCTION     0.14     0.47    35.61     0  00:47        0.47
  HS02004010           JUNCTION     0.06     0.19    38.06     0  00:47        0.19
  HS02003174           JUNCTION     0.19     0.44     5.98     0  00:48        0.44
  HS02003171           JUNCTION     0.20     0.49     6.18     0  00:47        0.49
  HS02003170           JUNCTION     0.24     0.47     6.92     0  00:47        0.47
  HS02003168           JUNCTION     0.13     0.31     6.80     0  00:47        0.31
  HS02003166           JUNCTION     0.23     0.47     6.95     0  00:47        0.47
  HS02003162           JUNCTION     0.23     0.42    30.67     0  00:41        0.42
  HS02003160           JUNCTION     0.17     0.37    28.43     0  00:46        0.37
  HS02003150           JUNCTION     0.18     0.40    26.41     0  00:46        0.39
  HS02003148           JUNCTION     0.20     0.50    22.24     0  00:46        0.50
  HS02003145           JUNCTION     0.26     0.81    14.68     0  00:44        0.81
  HS02003143           JUNCTION     0.39     0.80    13.27     0  00:38        0.80
  HS02003138           JUNCTION     0.23     0.53     7.02     0  01:41        0.53
  HS02003136           JUNCTION     1.52     2.28    10.00     0  00:00        2.28
  HS02003125           JUNCTION     1.58     2.35     9.80     0  00:33        2.28
  HS02003122           JUNCTION     1.62     2.49     9.92     0  00:33        2.36
  HS02003119           JUNCTION     1.38     2.60    10.31     0  00:33        2.15
  HS02003116           JUNCTION     1.06     2.43    10.55     0  00:33        1.75
  HS02003111           JUNCTION     0.47     0.86     9.88     0  00:46        0.86
  HS02003108           JUNCTION     0.37     1.16    10.28     0  00:42        0.80
  HS02003100           JUNCTION     0.26     0.75     9.98     0  00:47        0.73
  HS02003088           JUNCTION     0.22     0.74    10.04     0  00:47        0.72
  HS02003084           JUNCTION     0.10     0.61    10.04     0  00:47        0.61
  HS02003079           JUNCTION     0.06     0.53    10.05     0  00:47        0.53
  HS02003077           JUNCTION     0.01     0.31    10.05     0  00:46        0.31
  HS02003065           JUNCTION     0.70     1.67    10.90     0  00:38        1.62
  HS02003056           JUNCTION     0.75     1.74    10.68     0  00:38        1.71
  HS02003053           JUNCTION     0.51     1.66    10.96     0  00:36        1.58
  HS02003042           JUNCTION     0.34     1.69    11.35     0  00:38        1.33
  HS02003039           JUNCTION     0.37     1.70    11.35     0  00:44        1.40
  HS02003036           JUNCTION     0.19     1.41    11.47     0  00:44        1.16
  HS02003028           JUNCTION     0.31     1.40    11.14     0  00:44        1.40
  HS02003021           JUNCTION     0.32     1.55    10.92     0  00:44        1.49
  HS02003018           JUNCTION     0.33     1.48    10.69     0  00:44        1.48
  HS02003017           JUNCTION     0.34     1.48    10.64     0  00:44        1.48
  HS02003013           JUNCTION     0.33     1.47    10.52     0  00:44        1.42
  HS02003010           JUNCTION     0.36     1.46    10.26     0  00:44        1.30
  HS02003007           JUNCTION     0.32     1.30     9.91     0  00:44        1.09
  HS02003004           JUNCTION     0.41     1.03     9.35     0  00:44        0.98
  HS02003001           JUNCTION     0.12     0.29     8.58     0  00:47        0.29
  YS02001738           JUNCTION     0.00     0.00     8.89     0  00:00        0.00
  YS02001739           JUNCTION     0.00     0.00     8.37     0  00:00        0.00
  YS02001742           JUNCTION     0.00     0.00     8.49     0  00:00        0.00
  YS02001745           JUNCTION     0.15     0.36     7.88     0  00:48        0.36
  YS02001748           JUNCTION     0.17     0.57     7.65     0  00:48        0.57
  YS02001751           JUNCTION     0.18     0.81     7.69     0  00:48        0.80
  YS02001754           JUNCTION     0.20     2.20     8.81     0  00:48        1.00
  YS02001762           JUNCTION     0.41     2.04     8.44     0  00:48        1.47
  YS02001765           JUNCTION     0.40     2.08     8.53     0  00:48        1.52
  YS02001767           JUNCTION     0.41     2.03     8.52     0  00:48        1.62
  YS02001770           JUNCTION     0.47     1.95     8.44     0  00:46        1.83
  YS02001774           JUNCTION     0.54     2.05     8.47     0  00:46        1.92
  YS02001779           JUNCTION     0.29     1.68     8.37     0  00:46        1.68
  YS02001882           JUNCTION     0.78     1.83     8.55     0  00:42        1.64
  YS02001884           JUNCTION     0.87     1.90     8.52     0  00:42        1.74
  YS02001759           JUNCTION     0.42     2.06     8.43     0  00:47        1.43
  YS02001887           JUNCTION     0.95     1.90     8.44     0  00:42        1.82
  YS02001890           JUNCTION     0.98     1.81     8.32     0  00:42        1.81
  YS02001898           JUNCTION     0.75     1.77     8.51     0  00:42        1.56
  YS02001901           JUNCTION     0.85     1.77     8.38     0  00:42        1.67
  YS02001904           JUNCTION     0.83     1.65     8.28     0  00:42        1.63
  YS02001907           JUNCTION     1.15     1.96     8.25     0  00:42        1.96
  YS02001910           JUNCTION     0.97     2.04     8.55     0  00:42        1.95
  YS02001915           JUNCTION     0.81     2.00     8.72     0  00:42        1.90
  YS02001918           JUNCTION     0.53     1.81     8.88     0  00:43        1.62
  YS02001920           JUNCTION     0.62     2.11     9.12     0  00:45        1.73
  YS02001923           JUNCTION     0.44     2.03     9.29     0  00:45        1.51
  YS02001926           JUNCTION     0.44     1.90     9.35     0  00:44        1.86
  YS02001929           JUNCTION     0.29     1.78     9.47     0  00:45        1.14
  YS02001932           JUNCTION     0.20     1.77     9.57     0  00:45        1.05
  YS02001935           JUNCTION     0.14     1.75     9.68     0  00:45        0.93
  YS02001757           JUNCTION     0.40     2.10     8.36     0  00:47        1.32
  YS02001895           JUNCTION     0.74     1.65     8.40     0  00:42        1.56
  YS02005679           JUNCTION     0.00     0.00    10.24     0  00:00        0.00
  YS02005559           JUNCTION     0.10     0.20    10.15     0  00:49        0.20
  YS02005651           JUNCTION     0.07     0.17    10.94     0  00:47        0.17
  YS02005670           JUNCTION     0.07     0.18    10.64     0  00:46        0.18
  YS02005547           JUNCTION     0.06     0.15    10.69     0  00:46        0.15
  YS02005549           JUNCTION     0.08     0.23    11.14     0  00:46        0.23
  YS02005550           JUNCTION     0.10     0.28    10.91     0  00:47        0.28
  YS02005551           JUNCTION     0.06     0.14    10.51     0  00:47        0.14
  YS02005553           JUNCTION     0.12     0.28    10.64     0  00:49        0.28
  YS02005554           JUNCTION     0.07     0.14    10.38     0  00:48        0.14
  YS02005556           JUNCTION     0.13     0.26    10.32     0  00:48        0.26
  YS02005557           JUNCTION     0.07     0.14    10.10     0  00:49        0.14
  YS02005560           JUNCTION     0.08     0.15     9.89     0  00:48        0.15
  YS02005562           JUNCTION     0.12     0.24     9.97     0  00:48        0.23
  YS02005563           JUNCTION     0.07     0.13     9.80     0  00:48        0.13
  YS02005565           JUNCTION     0.11     0.21     9.91     0  00:48        0.21
  YS02005566           JUNCTION     0.09     0.17     9.56     0  00:48        0.17
  YS02005568           JUNCTION     0.13     0.28     9.78     0  00:48        0.28
  YS02005569           JUNCTION     0.10     0.20     9.52     0  00:48        0.20
  YS02005598           JUNCTION     0.25     1.07    10.91     0  00:43        1.07
  YS02005600           JUNCTION     0.23     1.02    10.68     0  00:43        1.02
  YS02005602           JUNCTION     0.51     2.15    10.43     0  00:43        2.15
  YS02005603           JUNCTION     0.16     1.12     9.24     0  00:43        0.58
  YS02005609           JUNCTION     0.08     0.22     9.12     0  00:47        0.22
  YS02005653           JUNCTION     0.12     0.69    11.66     0  00:45        0.68
  YS02005654           JUNCTION     0.13     0.63    11.39     0  00:45        0.52
  YS02005655           JUNCTION     0.06     0.14    10.77     0  00:47        0.14
  YS02005595           JUNCTION     0.36     1.36    11.04     0  00:41        1.36
  YS02005658           JUNCTION     0.10     0.37    11.28     0  00:47        0.32
  YS02005659           JUNCTION     0.06     0.14    10.80     0  00:46        0.14
  YS02005661           JUNCTION     0.13     0.52    11.23     0  00:46        0.52
  YS02005662           JUNCTION     0.05     0.13    10.75     0  00:47        0.13
  YS02005664           JUNCTION     0.13     0.44    11.03     0  00:45        0.42
  YS02005665           JUNCTION     0.05     0.11    10.68     0  00:47        0.11
  YS02005668           JUNCTION     0.05     0.12    10.28     0  00:47        0.12
  YS02005667           JUNCTION     0.27     0.60    10.61     0  00:46        0.59
  YS02005571           JUNCTION     0.16     0.40     9.88     0  00:46        0.37
  YS02005572           JUNCTION     0.11     0.22     9.58     0  00:49        0.22
  YS02005576           JUNCTION     0.12     0.24    10.00     0  00:48        0.24
  YS02005577           JUNCTION     0.10     0.21     9.69     0  00:48        0.21
  YS02005579           JUNCTION     0.30     1.12    10.74     0  00:45        1.12
  YS02005580           JUNCTION     0.18     0.94    10.47     0  00:45        0.72
  YS02005582           JUNCTION     0.33     0.86    10.94     0  00:45        0.86
  YS02005583           JUNCTION     0.17     0.90    10.90     0  00:45        0.41
  YS02005612           JUNCTION     0.46     1.59     9.72     0  00:46        1.59
  YS02005615           JUNCTION     0.06     0.15    11.64     0  00:46        0.15
  YS02005616           JUNCTION     0.05     0.12    10.94     0  00:46        0.12
  YS02005618           JUNCTION     0.08     0.21    11.07     0  00:46        0.21
  YS02005619           JUNCTION     0.05     0.13    10.68     0  00:46        0.13
  YS02005621           JUNCTION     0.09     0.27    11.38     0  00:46        0.26
  YS02005622           JUNCTION     0.04     0.11    11.07     0  00:46        0.11
  YS02005625           JUNCTION     0.04     0.09    11.10     0  00:46        0.09
  YS02005627           JUNCTION     0.10     0.26    11.19     0  00:46        0.26
  YS02005628           JUNCTION     0.04     0.10    11.00     0  00:46        0.10
  YS02005630           JUNCTION     0.10     0.28    11.35     0  00:46        0.28
  YS02005631           JUNCTION     0.05     0.12    10.99     0  00:47        0.12
  YS02005633           JUNCTION     0.09     0.26    11.39     0  00:47        0.26
  YS02005634           JUNCTION     0.05     0.13    10.97     0  00:47        0.13
  YS02005636           JUNCTION     0.11     0.48    11.47     0  00:45        0.40
  YS02005637           JUNCTION     0.06     0.15    10.91     0  00:47        0.15
  YS02005639           JUNCTION     0.10     0.41    11.04     0  00:46        0.40
  YS02005640           JUNCTION     0.06     0.16    10.49     0  00:47        0.16
  YS02005642           JUNCTION     0.08     0.20    11.02     0  00:47        0.20
  YS02005644           JUNCTION     0.11     0.45    11.56     0  00:46        0.36
  YS02005645           JUNCTION     0.07     0.17    10.98     0  00:47        0.17
  YS02005647           JUNCTION     0.23     1.03    11.92     0  00:45        1.03
  YS02005648           JUNCTION     0.09     0.23    11.02     0  00:45        0.23
  YS02005650           JUNCTION     0.14     0.57    11.46     0  00:47        0.56
  YS02005671           JUNCTION     0.04     0.09    10.31     0  00:46        0.09
  YS02005673           JUNCTION     0.08     0.21    10.56     0  00:47        0.21
  YS02005674           JUNCTION     0.05     0.13    10.02     0  00:47        0.13
  YS02005676           JUNCTION     0.00     0.00    10.24     0  00:00        0.00
  YS02005680           JUNCTION     0.05     0.12    10.22     0  00:47        0.12
  YS02005682           JUNCTION     0.00     0.00    10.06     0  00:00        0.00
  YS02005683           JUNCTION     0.03     0.07     9.96     0  00:46        0.07
  YS02005376           JUNCTION     0.81     1.01    11.10     0  00:27        1.01
  YS02005378           JUNCTION     1.35     1.62    11.15     0  00:27        1.62
  YS02005381           JUNCTION     1.24     1.57    11.20     0  00:27        1.57
  YS02005624           JUNCTION     0.22     0.40    11.28     0  00:45        0.40
  YS02005384           JUNCTION     0.40     1.03    10.68     0  00:27        0.53
  YS02005677           JUNCTION     0.06     0.14    10.22     0  00:47        0.14
  YSB1105              JUNCTION     0.28     0.56    10.04     0  00:46        0.56
  YSB1106              JUNCTION     0.27     2.05    11.89     0  00:45        0.76
  YSB1109              JUNCTION     0.34     2.00    11.94     0  00:45        1.08
  YSB1112              JUNCTION     0.34     1.95    12.08     0  00:45        1.66
  YSB1115              JUNCTION     0.32     1.90    12.20     0  00:45        1.90
  YSB1118              JUNCTION     0.33     1.80    12.34     0  00:45        1.66
  YSB1121              JUNCTION     0.39     1.70    12.37     0  00:45        1.70
  YSB1124              JUNCTION     0.25     1.60    12.43     0  00:45        1.54
  YSB1128              JUNCTION     0.45     1.85    12.43     0  00:41        1.85
  YSB1132              JUNCTION     0.50     1.90    12.35     0  00:41        1.90
  YSB1228              JUNCTION     0.06     0.16    11.01     0  00:46        0.16
  YSB1202              JUNCTION     0.99     1.50    12.39     0  00:38        1.46
  YSB1135              JUNCTION     0.63     2.00    12.26     0  00:41        1.95
  YSB1138              JUNCTION     0.72     1.90    12.07     0  00:41        1.90
  YSB1141              JUNCTION     0.77     2.00    11.83     0  00:41        1.93
  YSB1145              JUNCTION     0.78     2.00    11.69     0  00:41        1.90
  YSB1148              JUNCTION     0.86     2.00    11.50     0  00:41        1.93
  YSB1151              JUNCTION     1.04     2.08    11.30     0  00:41        2.02
  YSB1154              JUNCTION     1.19     2.10    11.16     0  00:41        2.10
  YSB1198              JUNCTION     0.22     1.60    12.39     0  00:42        1.60
  YSB1192              JUNCTION     0.43     1.90    12.17     0  00:42        1.85
  YSB6556              JUNCTION     1.02     1.80    10.97     0  00:41        1.80
  YSB1205              JUNCTION     1.17     1.65    12.35     0  00:38        1.65
  YSB1209              JUNCTION     1.15     1.65    12.22     0  00:38        1.65
  YSB1212              JUNCTION     1.05     1.60    12.13     0  00:38        1.60
  YSB1215              JUNCTION     1.06     1.69    12.04     0  00:54        1.69
  YSB1218              JUNCTION     1.06     1.75    11.94     0  00:44        1.75
  YSB1221              JUNCTION     0.99     1.58    11.55     0  00:51        1.58
  YSB1224              JUNCTION     0.86     1.33    11.18     0  00:49        1.33
  YSB1195              JUNCTION     0.37     1.90    12.28     0  00:42        1.90
  YSB1189              JUNCTION     0.53     1.80    11.96     0  00:41        1.80
  YSB1186              JUNCTION     0.59     1.93    11.81     0  00:42        1.83
  YSB1183              JUNCTION     0.73     2.05    11.64     0  00:42        1.94
  YSB1180              JUNCTION     0.77     1.95    11.46     0  00:42        1.86
  YSB1177              JUNCTION     1.02     2.05    11.24     0  00:41        2.01
  YSB1174              JUNCTION     1.07     1.95    11.06     0  00:45        1.95
  YSB1171              JUNCTION     1.24     1.95    10.85     0  00:41        1.95
  YS02006553           JUNCTION     1.15     2.03     8.31     0  00:43        1.98
  YS02006561           JUNCTION     0.41     1.31     7.97     0  00:43        0.91
  YS02006562           JUNCTION     0.92     1.92     8.43     0  00:43        1.78
  YS02006556           JUNCTION     1.12     2.08     8.39     0  00:43        1.97
  YS02006558           JUNCTION     1.16     2.15     8.42     0  00:43        2.03
  YS6132               JUNCTION     0.56     2.85    10.17     0  00:46        1.38
  YS6137               JUNCTION     0.28     2.07     9.86     0  00:47        1.17
  YS6189               JUNCTION     0.38     2.37    10.16     0  00:47        1.35
  YS6184               JUNCTION     0.38     2.55    10.44     0  00:47        1.44
  YS6179               JUNCTION     0.32     2.55    10.53     0  00:47        1.38
  YS6176               JUNCTION     0.23     2.40    10.60     0  00:47        1.18
  YS6171               JUNCTION     0.25     2.10    10.51     0  00:47        1.07
  YS6168               JUNCTION     0.27     2.00    10.51     0  00:47        1.06
  YS6164               JUNCTION     0.08     1.90    10.63     0  00:47        0.85
  YS6162               JUNCTION     0.14     2.10    10.75     0  00:47        0.93
  YS6187               JUNCTION     0.42     2.48    10.26     0  00:47        1.41
  YS6363               JUNCTION     0.32     2.17     9.96     0  00:46        1.18
  YS6360               JUNCTION     0.44     2.17     9.97     0  00:46        1.36
  YS6354               JUNCTION     0.41     2.43    10.58     0  00:46        1.70
  YS6351               JUNCTION     0.50     2.48    10.69     0  00:46        2.07
  YS6350               JUNCTION     0.56     2.50    10.72     0  00:46        2.29
  YS6348               JUNCTION     0.52     2.45    10.85     0  00:45        2.45
  YS6344               JUNCTION     0.34     2.29    10.88     0  00:51        2.26
  YS6375               JUNCTION     0.09     0.31     8.73     0  00:47        0.31
  YS6377               JUNCTION     0.15     0.37     8.73     0  00:47        0.37
  YS6381               JUNCTION     0.17     0.43     8.56     0  00:47        0.43
  YS6386               JUNCTION     0.20     0.50     8.48     0  00:47        0.50
  YS6390               JUNCTION     0.42     0.63     8.32     0  00:47        0.62
  YS6394               JUNCTION     0.11     0.25     8.17     0  00:48        0.25
  YS6404               JUNCTION     0.53     3.00    10.23     0  00:46        1.17
  YS6401               JUNCTION     0.17     0.42     7.63     0  00:47        0.40
  YS02004319           JUNCTION     0.30     1.18    20.80     0  00:41        1.18
  YS02004320           JUNCTION     0.00     0.00    22.64     0  00:57        0.00
  YS02004321           JUNCTION     0.00     0.00    26.80     0  00:50        0.00
  YS02004307           JUNCTION     0.16     0.52    11.05     0  00:47        0.51
  YS02004309           JUNCTION     0.81     1.55    13.07     0  00:33        1.55
  YS02004312           JUNCTION     0.49     1.48    14.91     0  00:40        1.48
  YS02004314           JUNCTION     0.35     1.28    16.99     0  00:41        1.28
  YS02004316           JUNCTION     0.35     1.36    19.13     0  00:41        1.36
  YS02001783           JUNCTION     0.64     1.53     7.67     0  00:43        1.24
  YS02001784           JUNCTION     0.62     1.28     7.35     0  00:43        1.13
  YS02001786           JUNCTION     0.50     1.00     7.03     0  00:43        0.88
  YS02001788           JUNCTION     0.37     0.62     6.60     0  00:44        0.62
  YS02001790           JUNCTION     0.43     0.72     6.36     0  00:46        0.71
  YS02001791           JUNCTION     0.26     0.44     5.91     0  00:49        0.43
  YS02001793           JUNCTION     0.14     0.29     5.12     0  01:09        0.28
  YS02003309           JUNCTION     0.70     1.21     9.77     0  00:28        1.21
  YS02003306           JUNCTION     0.82     1.16     9.60     0  00:28        1.16
  YS02003269           JUNCTION     0.14     0.17     7.76     0  00:42        0.17
  YS02003272           JUNCTION     0.41     1.73     9.46     0  00:29        1.48
  YS02003278           JUNCTION     0.81     1.45     9.37     0  00:29        1.21
  YS02003281           JUNCTION     0.91     1.39     9.47     0  00:29        1.39
  YS02003284           JUNCTION     0.99     1.40     9.41     0  00:29        1.40
  YS02003287           JUNCTION     0.95     1.27     9.34     0  00:29        1.27
  YS02003290           JUNCTION     0.81     1.13     9.41     0  00:29        1.10
  YS02003294           JUNCTION     0.96     1.24     9.42     0  00:29        1.24
  YS02003275           JUNCTION     0.61     1.35     9.25     0  00:29        1.11
  YS02003297           JUNCTION     0.94     1.22     9.43     0  00:29        1.22
  YS02003300           JUNCTION     0.88     1.15     9.42     0  00:28        1.15
  YS02003303           JUNCTION     0.87     1.14     9.46     0  00:28        1.14
  YSB1227              JUNCTION     0.01     0.11    11.01     0  00:46        0.10
  CaochengRainPumpOutfall1 OUTFALL      0.00     0.00     6.00     0  00:00        0.00
  JiankangRainPumpOutfall2 OUTFALL      0.00     0.00     6.00     0  00:00        0.00
  JiankangRainPumpOutfall1 OUTFALL      0.00     0.00     6.00     0  00:00        0.00
  CaochengRainPumpOutfall2 OUTFALL      0.00     0.00     6.00     0  00:00        0.00
  YS02005684           OUTFALL      0.03     0.07     8.47     0  00:46        0.07
  YS02005681           OUTFALL      0.05     0.12     9.34     0  00:47        0.12
  YS02005678           OUTFALL      0.06     0.14     8.68     0  00:47        0.14
  YS02005675           OUTFALL      0.05     0.13     8.67     0  00:47        0.13
  YS02005672           OUTFALL      0.04     0.09     8.43     0  00:46        0.09
  YS02005669           OUTFALL      0.05     0.12     8.83     0  00:47        0.12
  YS02005666           OUTFALL      0.05     0.11     8.79     0  00:47        0.11
  YS02005663           OUTFALL      0.05     0.13     8.86     0  00:47        0.13
  YS02005660           OUTFALL      0.06     0.14     8.96     0  00:47        0.14
  YS02005657           OUTFALL      0.00     0.00     8.74     0  00:00        0.00
  YS02005652           OUTFALL      0.07     0.17     8.80     0  00:47        0.17
  YS02005649           OUTFALL      0.09     0.23     8.93     0  00:46        0.23
  YS02005646           OUTFALL      0.07     0.17     8.17     0  00:47        0.17
  YS02005643           OUTFALL      0.08     0.19     8.75     0  00:47        0.19
  YS02005641           OUTFALL      0.06     0.16     8.85     0  00:47        0.16
  YS02005638           OUTFALL      0.06     0.15     8.81     0  00:47        0.15
  YS02005635           OUTFALL      0.05     0.13     8.79     0  00:47        0.13
  YS02005632           OUTFALL      0.05     0.12     8.68     0  00:47        0.12
  YS02005629           OUTFALL      0.04     0.10     8.58     0  00:46        0.10
  YS02005626           OUTFALL      0.04     0.09     8.61     0  00:46        0.09
  YS02005623           OUTFALL      0.04     0.11     8.58     0  00:46        0.11
  YS02005620           OUTFALL      0.05     0.13     8.92     0  00:46        0.13
  YS02005617           OUTFALL      0.05     0.12     8.96     0  00:46        0.12
  YSB1103              OUTFALL      0.28     0.60     8.60     0  00:45        0.60
  YSB1229              OUTFALL      0.06     0.16     8.96     0  00:46        0.16
  YS02005548           OUTFALL      0.05     0.15     9.15     0  00:46        0.15
  YS02005552           OUTFALL      0.06     0.14     8.77     0  00:47        0.14
  YS02005555           OUTFALL      0.07     0.14     8.87     0  00:48        0.14
  YS02005558           OUTFALL      0.07     0.14     8.84     0  00:49        0.14
  YS02005561           OUTFALL      0.08     0.15     8.83     0  00:49        0.15
  YS02005564           OUTFALL      0.07     0.13     8.61     0  00:48        0.13
  YS02005567           OUTFALL      0.09     0.17     8.71     0  00:48        0.17
  YS02005570           OUTFALL      0.10     0.20     8.91     0  00:48        0.20
  YS02005574           OUTFALL      0.11     0.22     9.06     0  00:49        0.22
  YS02005578           OUTFALL      0.10     0.21     8.99     0  00:48        0.21
  WS02005134           OUTFALL      0.00     0.00     8.74     0  00:00        0.00
  YS02005581           OUTFALL      0.14     0.30     9.10     0  00:45        0.30
  YS02005584           OUTFALL      0.15     0.30     9.26     0  00:44        0.30
  YS02005593           OUTFALL      0.25     0.28     9.00     0  00:37        0.28
  YS02005596           OUTFALL      0.16     0.30     8.84     0  00:41        0.30
  YS02005374           OUTFALL      0.14     0.30     8.54     0  00:42        0.30
  YS02005375           OUTFALL      0.13     0.30     8.69     0  00:42        0.30
  YS02005607           OUTFALL      0.13     0.30     7.53     0  00:43        0.30
  YS02005610           OUTFALL      0.08     0.22     8.84     0  00:47        0.22
  YS02005613           OUTFALL      0.15     0.30     8.58     0  00:44        0.30
  HS02003172           OUTFALL      0.19     0.44     5.90     0  00:48        0.44
  YS6395               OUTFALL      0.11     0.25     6.68     0  00:48        0.25
  YS6405               OUTFALL      0.17     0.40     3.85     0  00:47        0.40
  WSC                  OUTFALL      0.62     0.80     5.00     0  00:37        0.80
  JiankangQianchi      STORAGE      2.86     4.21     5.01     0  01:08        4.18
  CaochengTiaoxuchi    STORAGE      0.96     1.32     6.82     0  01:02        1.32
  XierchiQianchi       STORAGE      7.03     7.47     5.47     0  02:02        7.47
  
  
  *******************
  Node Inflow Summary
  *******************
  
  -------------------------------------------------------------------------------------------------
                                  Maximum  Maximum                  Lateral       Total        Flow
                                  Lateral    Total  Time of Max      Inflow      Inflow     Balance
                                   Inflow   Inflow   Occurrence      Volume      Volume       Error
  Node                 Type           LPS      LPS  days hr:min    10^6 ltr    10^6 ltr     Percent
  -------------------------------------------------------------------------------------------------
  WS02001211           JUNCTION      7.35   223.82     0  00:43       0.054        1.19       4.479
  WS02001212           JUNCTION      0.00   227.31     0  01:22           0        1.14       2.528
  WS02001213           JUNCTION      0.00   234.05     0  01:22           0        1.12       3.411
  WS02003069           JUNCTION      0.32  2519.85     0  00:48     0.00235        10.7       0.709
  WS02003072           JUNCTION      0.00  2520.01     0  00:48           0        10.6       0.593
  WS02003073           JUNCTION      1.82  3087.63     0  00:48      0.0134          14       0.284
  WS02003076           JUNCTION      0.00  3087.72     0  00:48           0        13.9       0.320
  WS02003060           JUNCTION     16.53  2519.77     0  00:48       0.122        10.8       0.569
  WS02003066           JUNCTION      0.00  2327.05     0  00:47           0         9.6       0.110
  WS02003059           JUNCTION      0.00   240.11     0  00:45           0        1.13       5.281
  WS02003115           JUNCTION      0.00   477.09     0  00:58           0        1.12       0.381
  WS02003116           JUNCTION      0.00   289.62     0  00:24           0        1.15       0.713
  WS02003118           JUNCTION      0.08   234.45     0  00:31    2.33e-06        1.14       1.314
  WS02003215           JUNCTION      0.18  2037.97     0  00:47    2.11e-05        2.86       0.938
  WS02003110           JUNCTION      0.18   474.68     0  00:47     0.00132       0.634       1.178
  WS02003111           JUNCTION      1.51   953.19     0  00:47      0.0107        1.69       0.418
  WS02005155           JUNCTION      0.38   474.41     0  00:47      0.0028       0.634       1.545
  WS02005154           JUNCTION    473.99   473.99     0  00:47        0.63       0.632       0.946
  WS02005193           JUNCTION      0.00   185.74     0  00:28           0       0.015     141.256
  WS02005196           JUNCTION      0.00   154.90     0  00:28           0     0.00563     643.457
  WS02003067           JUNCTION      0.00  1869.67     0  00:47           0        7.54       0.194
  WS02004401           JUNCTION      0.00  1101.90     0  01:33           0        5.91       0.533
  WS02004402           JUNCTION      0.00  1101.72     0  01:34           0        5.89       0.473
  WS02004403           JUNCTION      0.00  1102.12     0  01:33           0        5.87       0.411
  WS02004404           JUNCTION      0.16  1102.20     0  01:34     0.00119        5.85       0.281
  WS02004406           JUNCTION      0.00  1102.20     0  01:34           0        5.83       0.703
  WS02004409           JUNCTION      0.04  1827.70     0  00:45    7.06e-05        8.33       0.423
  WS02004410           JUNCTION      0.00  1869.54     0  00:47           0        8.38       0.429
  WS02004411           JUNCTION      0.00  1869.55     0  00:47           0        7.65       0.453
  WS02004412           JUNCTION      0.00  1869.63     0  00:47           0        7.62       0.451
  WS02004413           JUNCTION      0.00  1869.51     0  00:47           0        7.58       0.577
  WS02004405           JUNCTION      0.17  1102.20     0  01:34    0.000421        5.84       0.415
  WS02006109           JUNCTION      1.93  1308.01     0  00:00     0.00967        6.71       0.339
  WS02006110           JUNCTION      0.31  1101.26     0  01:33    0.000232        6.04      -0.324
  WS02006111           JUNCTION      0.04  1176.04     0  00:00    6.62e-06        6.03      -0.293
  WS02006112           JUNCTION      0.48  2307.30     0  00:00    2.47e-05        6.05       0.273
  WS02006113           JUNCTION      0.00  1101.32     0  01:33           0        6.02      -0.352
  WS02006115           JUNCTION      0.00  1366.62     0  00:00           0        5.96       0.551
  WS02006116           JUNCTION      0.34  1101.85     0  01:34    0.000432        5.93       0.458
  WS02006230           JUNCTION     10.37  1027.69     0  00:45      0.0756        3.63       0.454
  WS02006231           JUNCTION      0.52   453.29     0  00:57     0.00145        2.17       0.746
  WS02006232           JUNCTION      0.21   453.47     0  01:14    0.000126        2.18       0.827
  WS02006234           JUNCTION      0.08   453.29     0  01:13    2.33e-06        2.19       0.559
  WS02006235           JUNCTION      0.27   414.92     0  00:46    0.000534        2.23       0.493
  WS02006238           JUNCTION      0.00   415.22     0  01:29           0        2.24       0.328
  WS02006240           JUNCTION      0.00   414.83     0  00:46           0        2.27       0.730
  WS02006242           JUNCTION      0.41   414.87     0  00:46    0.000149        2.28       0.863
  WS02006243           JUNCTION      0.71   283.02     0  00:25     0.00152        1.69       0.963
  WS02006245           JUNCTION      0.00   290.56     0  00:25           0         1.7       0.784
  WS02006247           JUNCTION      0.00   302.50     0  00:26           0        1.72       0.701
  WS02006248           JUNCTION      0.00   346.68     0  00:35           0        2.07       0.534
  WS02006249           JUNCTION      0.00  1379.75     0  00:47           0        5.93       0.287
  WS02006239           JUNCTION      0.00   414.94     0  00:46           0        2.25       0.566
  WS02006251           JUNCTION      0.08  1711.15     0  00:47    0.000566        6.17       0.298
  WS02006252           JUNCTION      0.00   728.23     0  00:47           0        2.46       0.018
  WS02006253           JUNCTION     31.87  1710.80     0  00:47        0.05        4.54       0.455
  WS02006256           JUNCTION      0.00   300.00     0  00:32           0        1.63       0.063
  WS02004138           JUNCTION      0.00   190.00     0  00:29           0        1.17       0.256
  WS02004139           JUNCTION      0.32   190.32     0  00:33     0.00236        1.17       3.725
  WS02004407           JUNCTION      0.06  1827.79     0  00:45    7.43e-05        8.39       0.358
  WS02006228           JUNCTION      1.15  1289.46     0  00:45    0.000862        6.69       0.227
  WS02006229           JUNCTION      0.88  2307.28     0  00:45    0.000741        10.2       0.276
  WS02006280           JUNCTION      0.22  2306.80     0  00:45     0.00033          10       0.032
  WS02006284           JUNCTION      0.16  2306.82     0  00:45    0.000733        10.1       0.168
  WS02006287           JUNCTION      0.18  2306.93     0  00:45    6.98e-05        10.1       0.112
  WS02003091           JUNCTION      0.44  1200.35     0  00:00    0.000981        3.54      -1.112
  WS02003203           JUNCTION      0.31  2264.56     0  00:00    0.000139        5.63       0.179
  WS6145               JUNCTION      0.22   235.20     0  00:45    0.000352      0.0901       0.373
  WS6147               JUNCTION      0.00   235.80     0  00:45           0      0.0791       0.214
  WS6150               JUNCTION      0.05   236.23     0  00:45    0.000365      0.0682       0.489
  WS6152               JUNCTION      0.58   239.48     0  00:45     0.00424      0.0573       0.736
  WS6155               JUNCTION      0.17   239.98     0  00:45    4.66e-05      0.0424       0.301
  WS6156               JUNCTION      0.68   237.42     0  00:46     0.00383      0.0312       0.346
  WS6136               JUNCTION      0.21   740.81     0  00:45    5.49e-05        1.53       0.065
  WS6140               JUNCTION      0.16   233.75     0  00:45    0.000116        0.11       0.131
  WS6142               JUNCTION      0.16   234.52     0  00:45    0.000146       0.101       0.199
  WS6325               JUNCTION      0.19   150.94     0  00:45    0.000188      0.0884       2.579
  WS6327               JUNCTION      0.14   150.96     0  00:45     0.00046      0.0789       0.535
  WS6329               JUNCTION      0.48   151.21     0  00:45     0.00188      0.0681       0.190
  WS6332               JUNCTION      0.33   151.28     0  00:44    0.000755      0.0553       0.186
  WS6158               JUNCTION      1.83   254.86     0  00:46      0.0119      0.0156      -0.874
  WS6335               JUNCTION      0.67   151.75     0  00:44      0.0036      0.0432       0.412
  WS6338               JUNCTION      0.32   151.88     0  00:44     0.00108      0.0283       0.229
  WS6340               JUNCTION      0.21   153.74     0  00:45    0.000183      0.0156      -0.054
  WS6342               JUNCTION      0.63   153.38     0  00:45     0.00317     0.00633      -0.963
  WS6135               JUNCTION      0.06   740.66     0  00:45    1.49e-05        1.63       0.500
[...]
  WS02003089WS02003088        1.74      1.75      1.76      1.69         1.68
  WS02003088WS02003087        1.77      1.78      1.77      1.82         1.77
  WS02003087WS02003086        1.71      1.71      1.78      1.76         0.01
  WS02003086WS02003085        1.70      1.70      1.74      1.80         0.01
  WS02003085WS02003084        1.71      1.71      1.71      1.72         1.70
  WS02003084WS02003083        1.70      1.72      1.70      1.89         1.70
  WS02003083WS02003082        1.69      1.69      1.72      1.80         0.01
  WS02003082WS02003081        1.68      1.69      1.68      1.79         1.68
  WS02003081WS02003080        1.68      1.68      1.68      1.69         1.68
  WS02003080WS02003077        0.62      0.62      1.68      1.69         0.01
  WS02003073WS02003076        0.74      0.74      1.47      0.22         0.01
  HS02004901HS02004770        0.78      0.78      0.79      0.07         0.01
  HS02004876HS02004881        0.79      0.81      0.79      1.63         0.79
  HS02004870HS02004876        0.71      0.71      0.81      0.01         0.01
  HS02004049HS02004052        0.13      0.13      0.16      0.01         0.01
  HS02004048HS02004049        0.24      0.35      0.24      0.42         0.24
  HS02004046HS02004048        0.15      0.15      0.35      0.01         0.01
  HS02004043HS02004046        0.10      0.10      0.17      0.01         0.01
  HS02004041HS02004043        0.01      0.01      0.10      0.01         0.01
  HS02004028HS02004027        0.01      0.14      0.01      0.15         0.01
  HS02003143HS02003065        0.59      0.59      0.84      0.01         0.01
  HS02004842HS02004848        0.62      0.62      0.86      0.01         0.01
  HS02004837HS02004842        0.66      0.66      0.86      0.01         0.01
  HS02004830HS02004837        0.66      0.66      0.72      0.01         0.01
  HS02004824HS02004830        0.72      0.72      0.77      0.01         0.01
  HS02004817HS02004824        0.77      0.77      1.57      0.01         0.01
  HS02004770HS02004777        0.78      0.78      0.79      0.01         0.01
  HS02004799HS02004480        0.97      0.97      1.07      1.09         0.01
  HS02004792HS02004799        0.90      0.90      1.07      0.01         0.01
  HS02004788HS02004792        0.72      0.72      0.90      0.01         0.01
  HS02004785HS02004788        0.72      0.73      0.72      1.60         0.65
  HS02004777HS02004785        0.73      0.73      0.79      0.01         0.01
  HS02004480HS02004478        0.89      0.97      0.89      1.71         0.89
  HS02004479HS02004480        0.97      0.97      1.01      0.01         0.01
  HS02003013HS02003010        0.33      0.33      0.37      0.19         0.19
  HS02003010HS02003007        0.31      0.31      0.32      0.35         0.31
  HS02003007HS02003004        0.32      0.32      0.41      0.15         0.15
  HS02003004HS02003001        0.01      0.41      0.01      1.21         0.01
  HS02003065HS02003056        0.83      0.83      1.01      0.01         0.01
  HS02003042HS02003053        0.27      0.27      0.77      0.01         0.01
  HS02003028HS02003021        0.20      0.20      0.27      0.01         0.01
  HS02003021HS02003018        0.29      0.29      0.31      0.10         0.09
  HS02003018HS02003017        0.31      0.31      0.32      0.20         0.13
  HS02003017HS02003013        0.32      0.32      0.33      0.24         0.22
  HS02004862HS02004870        0.69      0.69      0.71      0.27         0.26
  HS02004848HS02004852        0.62      0.62      0.66      0.02         0.01
  HS02004856HS02004862        0.63      0.63      0.69      0.01         0.01
  HS02004852HS02004856        0.66      0.66      0.69      0.02         0.01
  HS02004024HS02004022        0.01      0.01      0.18      0.01         0.01
  HS02004022HS02004021        0.18      0.18      0.29      0.01         0.01
  HS02004021HS02004019        0.29      0.29      0.39      0.22         0.22
  HS02004019HS02003162        0.01      0.39      0.01      0.42         0.01
  HS02004052HS02004053        0.15      0.16      0.15      0.18         0.15
  HS02003122HS02003125        1.51      1.51      1.51      0.15         0.19
  HS02003119HS02003122        1.50      1.50      1.52      0.01         0.01
  HS02003116HS02003119        1.39      1.39      1.50      0.01         0.01
  HS02003111HS02003116        0.01      0.01      1.48      0.01         0.01
  HS02004018HS02004019        0.22      0.22      0.39      0.01         0.01
  HS02003056HS02003136        0.86      0.86      1.54      0.01         0.01
  HS02004017HS02004018        0.21      0.21      0.22      0.01         0.01
  HS02004013HS02004017        0.01      0.01      0.21      0.06         0.01
  HS02004802HS02004478        0.90      0.90      0.98      0.19         0.01
  HS02004478WS02006287        0.74      0.74      0.96      0.01         0.01
  HS02003148HS02003145        0.01      0.01      0.14      0.01         0.01
  HS02003145HS02003143        0.14      0.14      0.56      0.12         0.11
  HS02003136WS02003203        1.55      1.55      1.65      0.01         0.01
  HS02003084HS02003088        0.01      0.01      0.05      0.01         0.01
  HS02003108HS02003111        0.14      0.14      0.38      0.01         0.01
  HS02003100HS02003108        0.08      0.08      0.14      0.01         0.01
  HS02003088HS02003100        0.07      0.07      0.08      0.01         0.01
  HS02004817HS02004807        0.94      0.94      1.57      0.01         0.01
  HS02004807HS02004802        0.95      0.95      0.97      0.35         0.35
  HS02003053HS02003056        0.77      0.77      1.01      0.01         0.01
  HS02003039HS02003042        0.34      0.35      0.38      0.19         0.02
  HS02003036HS02003039        0.15      0.15      0.20      0.01         0.01
  YS02001759YS02001757        0.10      0.11      0.10      0.16         0.10
  YS02001762YS02001759        0.11      0.11      0.11      0.16         0.11
  YS02001765YS02001762        0.11      0.11      0.11      0.07         0.06
  YS02001770YS02001767        0.11      0.13      0.11      0.68         0.11
  YS02001774YS02001770        0.12      0.12      0.15      0.01         0.01
  YS02001779YS02001774        0.08      0.08      0.15      0.01         0.01
  YS02001767YS02001765        0.11      0.11      0.11      0.18         0.10
  YS02006561YS02001783        0.45      0.45      0.66      0.01         0.01
  YS02001783YS02001784        0.63      0.66      0.63      0.84         0.63
  YS02001784YS02001785        0.51      0.63      0.51      1.29         0.51
  YS02001790YS02001791        0.01      0.01      0.01      0.61         0.01
  YS02001910YS02001907        0.69      0.69      0.94      0.01         0.01
  YS02001786YS02001788        0.01      0.51      0.01      1.06         0.01
  YS02001915YS02001910        0.59      0.59      0.69      0.01         0.01
  YS02001918YS02001915        0.49      0.49      0.59      0.01         0.01
  YS02001923YS02001920        0.42      0.42      0.51      0.01         0.01
  YS02001926YS02001923        0.15      0.15      0.18      0.01         0.01
  YS02001929YS02001926        0.02      0.02      0.18      0.01         0.01
  YS02001932YS02001929        0.01      0.01      0.02      0.01         0.01
  YS02001935YS02001932        0.01      0.01      0.01      0.01         0.01
  YS02001920YS02001918        0.49      0.49      0.51      0.01         0.01
  YS02003290YS02003287        1.60      1.60      1.65      0.01         0.01
  YS02003294YS02003290        1.60      1.60      1.69      0.04         0.01
  YS02003297YS02003294        1.67      1.67      1.68      0.26         0.28
  YS02003275YS02003272        1.46      1.58      1.46      1.62         1.46
  YS02003300YS02003297        1.60      1.60      1.66      0.01         0.01
  YS02003303YS02003300        1.58      1.58      1.62      0.01         0.01
  YS02005550YS02005551        0.01      0.01      0.01      0.09         0.01
  YS02005568YS02005569        0.01      0.01      0.01      0.20         0.01
  YS02005582YS02005583        0.34      0.59      0.34      0.81         0.34
  YS02003272YS02003269        0.01      1.55      0.01      1.62         0.01
  YS02003278YS02003275        1.59      1.66      1.59      1.75         1.59
  YS02003281YS02003278        1.63      1.63      1.65      1.60         1.60
  YS02003284YS02003281        1.63      1.63      1.65      1.03         0.33
  YS02003287YS02003284        1.64      1.64      1.67      0.01         0.06
  YS02003306YS02003303        1.58      1.58      1.60      0.50         0.50
  YS02003309YS02003306        1.54      1.54      1.58      0.01         0.01
  YS02005600YS02005375        0.23      0.23      0.24      0.24         0.23
  YS02005384YS02005593        0.01      1.46      0.01      1.52         0.01
  YS02005595YS02005596        0.34      0.35      0.34      0.37         0.34
  YS02005612YS02005613        0.14      0.14      1.11      0.36         0.01
  YS02005553YS02005554        0.01      0.01      0.01      0.21         0.01
  YS02005556YS02005557        0.01      0.01      0.01      0.25         0.01
  YS02005562YS02005563        0.01      0.01      0.01      0.17         0.01
  YS02005571YS02005572        0.01      0.20      0.01      0.38         0.01
  YS02005579YS02005580        0.24      0.45      0.24      0.65         0.24
  YS02005580YS02005581        0.22      0.24      0.22      0.27         0.22
  YS02005583YS02005584        0.34      0.34      0.36      0.36         0.34
  YS02006553YS02006556        0.80      0.80      0.99      0.01         0.01
  YS02006556YS02006558        0.88      0.88      1.04      0.01         0.01
  YSB6556YSB1171              1.12      1.12      1.64      0.01         0.01
  YSB1202YSB1205              1.41      1.41      1.43      0.01         0.01
  YSB1205YSB1209              1.43      1.43      1.43      0.92         0.86
  YSB1209YSB1212              1.40      1.43      1.40      1.52         1.40
  YSB1212YSB1215              1.40      1.40      1.40      0.69         0.68
  YSB1215YSB1218              1.40      1.40      1.40      0.75         0.74
  YSB1218YSB1221              1.40      1.40      1.41      1.32         1.32
  YSB1221YSB1224              1.41      1.41      1.41      1.40         1.40
  YSB1224YSB1105              1.09      1.45      1.09      1.53         1.09
  YSB1189YSB1186              0.65      0.65      0.76      0.18         0.18
  YS02001907YS02006553        1.31      1.31      1.45      0.01         0.01
  YS02006562YS02006558        0.66      0.66      1.04      0.01         0.01
  YS02006558YS02006561        0.54      0.79      0.54      1.21         0.54
  YS6184YS6187                0.12      0.12      0.13      0.06         0.06
  YS6360YS6363                0.08      0.13      0.08      0.73         0.08
  YS6354YS6360                0.18      0.18      0.20      0.18         0.16
  YS6351YS6354                0.18      0.22      0.18      0.42         0.18
  YS6350YS6351                0.22      0.24      0.22      0.78         0.22
  YS6348YS6350                0.22      0.22      0.24      0.21         0.20
  YS6344YS6348                0.23      0.23      0.29      0.01         0.01
  YS6363YS6132                0.08      0.08      0.23      0.01         0.01
  YS6137YS6132                0.17      0.17      0.34      0.01         0.01
  YS6189YS6137                0.17      0.17      0.18      1.61         0.01
  YS6187YS6189                0.11      0.12      0.13      0.28         0.01
  YS6179YS6184                0.11      0.11      0.12      0.01         0.01
  YS6176YS6179                0.04      0.04      0.11      0.01         0.01
  YS6171YS6176                0.06      0.06      0.11      0.01         0.01
  YS6168YS6171                0.06      0.06      0.06      0.03         0.03
  YS6164YS6168                0.02      0.02      0.06      0.01         0.01
  YS6162YS6164                0.05      0.05      0.07      0.01         0.01
  YS6132YS6404                0.01      0.12      0.01      0.27         0.01
  YSB1106YSB1105              0.01      0.17      0.01      0.21         0.01
  YSB1109YSB1106              0.17      0.23      0.17      0.37         0.17
  YSB1112YSB1109              0.23      0.23      0.23      0.26         0.23
  YSB1115YSB1112              0.21      0.21      0.23      0.08         0.08
  YSB1118YSB1115              0.24      0.24      0.24      0.25         0.23
  YSB1121YSB1118              0.24      0.26      0.24      0.36         0.24
  YSB1124YSB1121              0.23      0.23      0.26      0.01         0.01
  YSB1105YSB1103              0.01      0.01      0.15      0.15         0.01
  YS02001751YS02001754        0.01      0.01      0.01      0.01         0.01
  YS02001754YS02001757        0.02      0.02      0.10      0.01         0.01
  YS02001882YS02001884        0.59      0.59      0.60      0.01         0.01
  YS02001884YS02001887        0.63      0.63      0.64      0.01         0.01
  YS02001890YS02001895        0.58      0.58      0.69      0.01         0.01
  YS02001895YS02001898        0.57      0.57      0.58      0.01         0.01
  YS02001898YS02001901        0.58      0.58      0.63      0.01         0.01
  YS02001901YS02001904        0.62      0.62      0.63      0.01         0.01
  YS02001904YS02001907        0.62      0.62      1.00      0.01         0.01
  YS02001887YS02001890        0.66      0.66      0.67      0.10         0.01
  YS02004309YS02004307        0.12      1.03      0.12      1.00         0.12
  YS02004319YS02004316        0.32      0.32      0.33      0.01         0.01
  YS02005376YS02005378        1.68      1.68      1.84      0.01         0.01
  YS02005378YS02005381        1.81      1.81      1.84      0.35         0.01
  YS02005381YS02005384        1.46      1.46      1.81      1.82         0.01
  YS02005598YS02005374        0.25      0.25      0.26      0.26         0.25
  YS02005602YS02005603        0.21      0.52      0.21      0.66         0.21
  YS02005603YS02005607        0.21      0.21      0.22      0.22         0.21
  YS02005621YS02005622        0.01      0.01      0.01      0.04         0.01
  YS02005624YS02005625        0.01      0.01      0.18      0.01         0.01
  YS02005630YS02005631        0.01      0.01      0.01      0.06         0.01
  YS02005633YS02005634        0.01      0.01      0.01      0.03         0.01
  YS02005636YS02005637        0.01      0.05      0.01      0.09         0.01
  YS02005639YS02005640        0.01      0.05      0.01      0.08         0.01
  YS02005627YS02005628        0.01      0.01      0.01      0.20         0.01
  YS02005644YS02005645        0.01      0.02      0.01      0.06         0.01
  YS02005650YS02005651        0.01      0.10      0.01      0.19         0.01
  YS02005653YS02005654        0.09      0.09      0.10      0.09         0.09
  YS02005654YS02005655        0.01      0.10      0.01      0.19         0.01
  YS02005658YS02005659        0.01      0.02      0.01      0.07         0.01
  YS02005661YS02005662        0.01      0.09      0.01      0.20         0.01
  YS02005664YS02005665        0.01      0.07      0.01      0.43         0.01
  YS02005667YS02005668        0.01      0.01      0.45      0.07         0.01
  YS02005647YS02005648        0.01      0.26      0.01      0.41         0.01
  YS02004312YS02004309        0.60      0.60      1.03      0.01         0.01
  YS02004314YS02004312        0.36      0.36      0.60      0.01         0.01
  YS02004316YS02004314        0.33      0.33      0.36      0.27         0.27
  YS02004320YS02004319        0.01      0.01      0.24      0.01         0.01
  YS6404YS6401                0.01      0.01      0.01      0.73         0.01
  YSB1132YSB1135              0.63      0.63      0.70      0.01         0.01
  YSB1135YSB1138              0.70      0.70      0.73      0.01         0.01
  YSB1138YSB1141              0.73      0.73      0.84      0.39         0.39
  YSB1141YSB1145              0.81      0.81      0.84      0.38         0.36
  YSB1148YSB1151              0.94      0.94      1.28      0.01         0.01
  YSB1151YSB1154              1.06      1.06      1.52      0.01         0.01
  YSB1154YSB6556              1.12      1.12      1.52      0.39         0.01
  YSB1128YSB1132              0.60      0.60      0.63      0.01         0.01
  YSB1145YSB1148              0.84      0.84      0.94      0.01         0.01
  YSB1198YSB1195              0.29      0.29      0.57      0.01         0.01
  YSB1195YSB1192              0.57      0.57      0.61      0.01         0.01
  YSB1192YSB1189              0.61      0.61      0.65      0.01         0.01
  YSB1186YSB1183              0.71      0.71      0.84      0.01         0.01
  YSB1183YSB1180              0.84      0.84      0.89      0.22         0.23
  YSB1180YSB1177              0.89      0.89      1.34      0.01         0.01
  YSB1177YSB1174              1.34      1.34      1.56      0.23         0.24
  YSB1174YSB1171              1.27      1.27      1.60      0.14         0.14
  YSB1171HS02004479           0.93      0.93      1.48      0.01         0.01
  YS02004307HS02004052        0.01      0.01      0.16      0.01         0.01
  HS02004881HS02006253        0.79      0.79      1.56      0.01         0.01
  WS0200404049WS6136          0.14      0.14      0.23      0.01         0.01
  HS02003125WS02003215        1.51      1.51      1.54      0.01         0.01
  YS02001793JiankangQianchi        0.01      0.01      2.03      0.01         0.01
  YS02001757CaochengTiaoxuchi        0.09      0.10      0.78      0.08         0.06
  WS02004041WS6409            1.25      1.25      1.37      1.36         1.25
  WSF200WS02003060            0.23      0.23      0.52      0.01         0.01
  HS02004053WS02004407        0.15      0.15      1.28      0.01         0.01
  HS02003036HS02003028        0.15      0.15      0.25      0.01         0.01
  
  
  ***************
  Pumping Summary
  ***************
  
  ---------------------------------------------------------------------------------------------------------
                                                  Min       Avg       Max     Total     Power    % Time Off
                        Percent   Number of      Flow      Flow      Flow    Volume     Usage    Pump Curve
  Pump                 Utilized   Start-Ups       LPS       LPS       LPS  10^6 ltr     Kw-hr    Low   High
  ---------------------------------------------------------------------------------------------------------
  CaochengSewagePump1     91.69           1      0.00    200.00    200.00     1.348     10.38    0.0    0.0
  CaochengSewagePump2     61.02           1      0.00    200.00    200.00     0.897      7.21    0.0    0.0
  CaochengRainPump1       57.49           1      0.00    683.00    683.00     2.887      4.27    0.0   39.4
  CaochengRainPump2        0.00           0      0.00      0.00      0.00     0.000      0.00    0.0    0.0
  JiankangSewagePump      73.73           1      0.00    300.00    300.00     1.626     25.36    0.0    0.0
  JiankangRainPump1       36.77           5      0.00   1000.00   1000.00     2.704     17.79    0.0    0.0
  JiankangRainPump2        0.00           0      0.00      0.00      0.00     0.000      0.00    0.0    0.0
  XierchiSewagePump1      91.82           1      0.00     95.00     95.00     0.641      3.96    0.0    0.0
  XierchiSewagePump2      76.30           1      0.00     95.00     95.00     0.533      3.12    0.0    0.0
  XierchiSewagePump3       0.00           0      0.00      0.00      0.00     0.000      0.00    0.0    0.0
  XierchiSewagePump4       0.00           0      0.00      0.00      0.00     0.000      0.00    0.0    0.0
  

  Analysis begun on:  Mon Oct 17 20:50:36 2022
  Analysis ended on:  Mon Oct 17 21:25:07 2022
  Total elapsed time: 00:34:31