
  EPA STORM WATER MANAGEMENT MODEL - VERSION 5.1 (Build 5.3.0.dev0)
  --------------------------------------------------------------

  WARNING 04: minimum elevation drop used for Conduit WS02004404WS02004405
  WARNING 03: negative offset ignored for Link YS02001904YS02001907
  
  *********************************************************
  NOTE: The summary statistics displayed in this report are
  based on results found at every computational time step,  
  not just on results from each reporting time step.
  *********************************************************
  
  ****************
  Analysis Options
  ****************
  Flow Units ............... LPS
  Process Models:
    Rainfall/Runoff ........ YES
    RDII ................... NO
    Snowmelt ............... NO
    Groundwater ............ NO
    Flow Routing ........... YES
    Ponding Allowed ........ NO
    Water Quality .......... NO
  Infiltration Method ...... HORTON
  Flow Routing Method ...... DYNWAVE
  Surcharge Method ......... EXTRAN
  Starting Date ............ 03/31/2017 00:00:00
  Ending Date .............. 03/31/2017 03:00:00
  Antecedent Dry Days ...... 8.0
  Report Time Step ......... 00:00:30
  Wet Time Step ............ 00:01:00
  Dry Time Step ............ 00:01:00
  Routing Time Step ........ 30.00 sec
  Variable Time Step ....... YES
  Maximum Trials ........... 8
  Number of Threads ........ 6
  Head Tolerance ........... 0.001500 m
  
  
  **************************        Volume         Depth
  Runoff Quantity Continuity     hectare-m            mm
  **************************     ---------       -------
  Initial LID Storage ......         0.144         1.225
  Total Precipitation ......        12.606       106.974
  Evaporation Loss .........         0.000         0.000
  Infiltration Loss ........         0.279         2.368
  Surface Runoff ...........         9.577        81.272
  Final Storage ............         2.907        24.665
  Continuity Error (%) .....        -0.098
  
  
  **************************        Volume        Volume
  Flow Routing Continuity        hectare-m      10^6 ltr
  **************************     ---------     ---------
  Dry Weather Inflow .......         0.171         1.713
  Wet Weather Inflow .......         9.558        95.578
  Groundwater Inflow .......         0.000         0.000
  RDII Inflow ..............         0.000         0.000
  External Inflow ..........         0.033         0.334
  External Outflow .........         5.127        51.272
  Flooding Loss ............         4.418        44.178
  Evaporation Loss .........         0.000         0.000
  Exfiltration Loss ........         0.000         0.000
  Initial Stored Volume ....         0.303         3.031
  Final Stored Volume ......         0.552         5.516
  Continuity Error (%) .....        -0.308
  
  
  *************************
  Highest Continuity Errors
  *************************
  Node WS02005193 (58.47%)
  Node YS02001884 (24.66%)
  Node YS02001774 (7.66%)
  Node HS02003116 (6.42%)
  Node YS02004320 (5.81%)
  
  
  ***************************
  Time-Step Critical Elements
  ***************************
  Link YS02005655YS02005657 (46.94%)
  Link WS02006252WS02006251 (20.42%)
  Link WS02004041WS6409 (16.56%)
  Link WS02003073WS02003076 (1.80%)
  Link WS02006280WS02006229 (1.37%)
  
  
  ********************************
  Highest Flow Instability Indexes
  ********************************
  Link WS02006238WS02006235 (75)
  Link WS02003215WS02003116 (70)
  Link WS02003122WS02003187 (68)
  Link WS02003200WS02003201 (68)
  Link WS02003203WS02003091 (67)
  
  
  *************************
  Routing Time Step Summary
  *************************
  Minimum Time Step           :     0.50 sec
  Average Time Step           :     0.93 sec
  Maximum Time Step           :    30.00 sec
  Percent in Steady State     :    -0.00
  Average Iterations per Step :     6.51
  Percent Not Converging      :    40.35
  
  
  ***************************
  Subcatchment Runoff Summary
  ***************************
  
  ------------------------------------------------------------------------------------------------------------------------------
                            Total      Total      Total      Total     Imperv       Perv      Total       Total     Peak  Runoff
                           Precip      Runon       Evap      Infil     Runoff     Runoff     Runoff      Runoff   Runoff   Coeff
  Subcatchment                 mm         mm         mm         mm         mm         mm         mm    10^6 ltr      LPS
  ------------------------------------------------------------------------------------------------------------------------------
  sub0                     106.97       0.00       0.00       0.74      97.09       6.43     103.52        0.08    65.83   0.968
  sub1                     106.97       0.00       0.00       0.94      74.40       8.04      82.44        0.55   379.71   0.771
  sub2                     106.97       0.00       0.00       3.38      55.72      25.55      81.27        0.76   425.25   0.760
  sub3                     106.97       0.00       0.00       3.25      53.14      23.34      76.48        1.72   899.93   0.715
  sub4                     106.97       0.00       0.00       0.95      73.05       7.84      80.89        1.69   966.30   0.756
  sub5                     106.97       0.00       0.00       0.58      74.67       4.96      79.63        0.90   632.11   0.744
  sub6                     106.97       0.00       0.00       0.63      81.14       5.40      86.54        2.24  1458.83   0.809
  sub7                     106.97       0.00       0.00       0.60      59.62       5.18      64.80        0.22   168.68   0.606
  sub8                     106.97       0.00       0.00       0.76      75.78       6.58      82.36        0.53   385.63   0.770
  sub9                     106.97       0.00       0.00       0.70      69.77       6.06      75.83        0.36   268.87   0.709
  sub10                    106.97       0.00       0.00       0.75      83.97       6.43      90.40        1.00   693.41   0.845
  sub11                    106.97       0.00       0.00       0.75      84.94       6.50      91.45        1.06   774.30   0.855
  sub12                    106.97       0.00       0.00       0.98      64.87       8.48      73.34        0.64   504.82   0.686
  sub13                    106.97       0.00       0.00       2.83      53.99      23.20      77.19        0.92   610.02   0.722
  sub14                    106.97       0.00       0.00       0.82      81.63       7.09      88.73        0.84   604.46   0.829
  sub15                    106.97       0.00       0.00       2.70      61.73      22.07      83.79        1.44   936.03   0.783
  sub16                    106.97       0.00       0.00       3.07      61.37      25.55      86.93        0.91   643.71   0.813
  sub17                    106.97       0.00       0.00       2.88      60.38      24.03      84.41        0.72   510.37   0.789
  sub18                    106.97       0.00       0.00       0.80      79.76       6.93      86.69        0.69   525.80   0.810
  sub19                    106.97       0.00       0.00       1.98      43.66      16.73      60.39        0.19   141.62   0.565
  sub20                    106.97       0.00       0.00       0.78      77.52       6.74      84.26        0.59   440.43   0.788
  sub21                    106.97       0.00       0.00       0.95      69.13       8.25      77.38        0.39   304.58   0.723
  sub22                    106.97       0.00       0.00       3.64      47.41      29.13      76.54        4.83  3014.30   0.715
  sub23                    106.97       0.00       0.00       3.19      53.38      26.06      79.43        3.79  2512.51   0.743
  sub24                    106.97       0.00       0.00       1.22      73.86      10.49      84.34        3.02  2300.36   0.788
  sub25                    106.97       0.00       0.00       0.60      78.60       5.20      83.80        1.09   896.56   0.783
  sub26                    106.97       0.00       0.00       2.09      65.74      18.04      83.77        1.19   992.48   0.783
  sub27                    106.97       0.00       0.00       0.79      77.72       6.75      84.47        1.22   873.43   0.790
  sub28                    106.97       0.00       0.00       0.71      79.77       6.11      85.88        1.35   955.33   0.803
  sub29                    106.97       0.00       0.00       0.71      79.19       6.07      85.26        1.37   885.70   0.797
  sub30                    106.97       0.00       0.00       0.56      64.14       4.90      69.05        1.56  1242.64   0.645
  sub31                    106.97       0.00       0.00       1.48      71.39      12.74      84.13        1.78  1406.75   0.786
  sub32                    106.97       0.00       0.00       0.63      71.64       5.48      77.12        1.54  1169.40   0.721
  sub33                    106.97       0.00       0.00       1.00      66.06       8.63      74.69        1.37  1079.95   0.698
  sub34                    106.97       0.00       0.00       5.27      52.29      43.58      95.87        2.14  1449.93   0.896
  sub35                    106.97       0.00       0.00       0.72      82.85       6.33      89.18        0.31   276.33   0.834
  sub36                    106.97       0.00       0.00       2.32      81.59      19.96     101.55        0.88   696.70   0.949
  sub37                    106.97       0.00       0.00       3.44      53.51      29.36      82.87        0.63   494.67   0.775
  sub38                    106.97       0.00       0.00       3.01      55.69      25.90      81.58        1.55  1274.84   0.763
  sub39                    106.97       0.00       0.00       0.72      82.85       6.33      89.18        0.95   797.28   0.834
  sub40                    106.97       0.00       0.00       0.57      65.49       5.00      70.50        0.82   710.71   0.659
  sub41                    106.97       0.00       0.00       1.25      65.11      10.83      75.94        1.46  1200.55   0.710
  sub42                    106.97       0.00       0.00       0.60      59.89       5.20      65.09        0.65   563.62   0.608
  sub43                    106.97       0.00       0.00       3.76      60.65      31.29      91.94        0.75   526.60   0.859
  sub44                    106.97       0.00       0.00       0.54      70.70       4.69      75.39        0.85   622.77   0.705
  sub45                    106.97       0.00       0.00       1.43      68.44      12.15      80.59        1.48  1082.74   0.753
  sub46                    106.97       0.00       0.00       5.46      31.87      44.66      76.53        0.54   336.18   0.715
  sub47                    106.97       0.00       0.00       0.62      70.66       5.41      76.06        0.58   444.81   0.711
  sub48                    106.97       0.00       0.00       0.64      63.72       5.54      69.25        0.53   406.26   0.647
  sub49                    106.97       0.00       0.00       0.61      69.26       5.30      74.57        0.68   505.64   0.697
  sub50                    106.97       0.00       0.00       0.54      61.50       4.71      66.20        0.46   351.21   0.619
  sub51                    106.97       0.00       0.00       0.49      55.37       4.23      59.61        0.28   222.51   0.557
  sub52                    106.97       0.00       0.00       0.57      74.08       4.92      78.99        0.86   626.79   0.738
  sub53                    106.97       0.00       0.00       0.64      72.00       5.51      77.50        0.78   596.25   0.725
  sub54                    106.97       0.00       0.00       0.52      67.81       4.50      72.31        0.43   305.93   0.676
  sub55                    106.97       0.00       0.00       0.58      65.37       5.00      70.37        0.56   409.64   0.658
  sub56                    106.97       0.00       0.00       1.65      68.17      13.59      81.76        1.16   737.78   0.764
  sub57                    106.97       0.00       0.00       2.64      57.40      21.40      78.80        0.51   326.88   0.737
  sub58                    106.97       0.00       0.00       7.18      26.25      51.52      77.77        2.88  1286.24   0.727
  sub59                    106.97       0.00       0.00       7.24      21.32      47.14      68.46        1.57   614.75   0.640
  sub60                    106.97       0.00       0.00       0.78      56.75       6.77      63.52        0.83   641.42   0.594
  sub61                    106.97       0.00       0.00       1.43      68.61      12.19      80.80        1.48  1109.40   0.755
  sub62                    106.97       0.00       0.00       0.61      68.95       5.28      74.23        2.03  1447.91   0.694
  sub67                    106.97       0.00       0.00       0.67      75.81       5.81      81.62        1.52  1082.46   0.763
  sub68                    106.97       0.00       0.00       1.07      64.80       9.18      73.99        2.04  1488.89   0.692
  sub71                    106.97       0.00       0.00       0.60      67.23       5.15      72.39        1.89  1266.16   0.677
  sub72                    106.97       0.00       0.00       0.54      68.65       4.58      73.22        1.01   633.37   0.684
  sub73                    106.97       0.00       0.00       2.22      82.63      19.07     101.69        0.10    78.80   0.951
  sub74                    106.97       0.00       0.00       3.38      71.10      28.67      99.77        0.16   122.23   0.933
  sub75                    106.97       0.00       0.00       3.16      73.28      27.05     100.33        0.22   172.62   0.938
  sub76                    106.97       0.00       0.00       1.90      85.62      16.34     101.97        0.25   194.69   0.953
  sub77                    106.97       0.00       0.00       1.79      86.80      15.49     102.29        0.16   129.66   0.956
  sub78                    106.97       0.00       0.00       1.12      74.22       9.69      83.91        0.23   179.50   0.784
  sub79                    106.97       0.00       0.00       2.53      79.01      21.42     100.43        0.26   190.82   0.939
  sub80                    106.97       0.00       0.00       3.48      69.99      29.44      99.43        0.29   218.14   0.929
  sub81                    106.97       0.00       0.00       3.90      65.68      32.57      98.25        0.30   214.09   0.918
  sub82                    106.97       0.00       0.00       3.90      65.79      32.78      98.57        0.30   216.41   0.921
  sub83                    106.97       0.00       0.00       4.01      64.84      33.81      98.64        0.33   246.28   0.922
  sub84                    106.97       0.00       0.00       2.84      52.21      23.88      76.10        0.41   301.89   0.711
  sub85                    106.97       0.00       0.00       2.10      65.76      17.86      83.62        0.37   277.88   0.782
  sub86                    106.97       0.00       0.00       2.74      76.97      23.15     100.12        0.48   354.20   0.936
  sub87                    106.97       0.00       0.00       3.69      67.83      31.03      98.87        0.30   216.90   0.924
  sub88                    106.97       0.00       0.00       3.59      68.91      30.25      99.17        0.30   224.10   0.927
  sub89                    106.97       0.00       0.00       3.27      72.21      27.89     100.11        0.27   205.84   0.936
  sub90                    106.97       0.00       0.00       2.85      76.28      24.30     100.58        0.25   190.56   0.940
  sub91                    106.97       0.00       0.00       2.85      76.54      24.52     101.05        0.18   148.76   0.945
  sub92                    106.97       0.00       0.00       3.27      72.49      28.21     100.70        0.15   126.59   0.941
  sub93                    106.97       0.00       0.00       3.27      72.52      28.24     100.76        0.18   154.18   0.942
  sub94                    106.97       0.00       0.00       3.27      72.35      28.06     100.41        0.22   174.80   0.939
  sub95                    106.97       0.00       0.00       3.06      74.50      26.34     100.84        0.15   125.04   0.943
  sub96                    106.97       0.00       0.00       2.32      82.04      20.19     102.23        0.19   165.76   0.956
  sub97                    106.97       0.00       0.00       6.44      41.13      55.41      96.54        0.22   185.39   0.902
  sub98                    106.97       0.00       0.00       7.60      29.46      62.97      92.43        0.30   191.18   0.864
  sub99                    106.97       0.00       0.00       8.33      22.06      65.76      87.83        0.31   156.95   0.821
  sub100                   106.97       0.00       0.00       8.33      22.02      62.95      84.96        0.30   135.50   0.794
  sub101                   106.97       0.00       0.00       8.33      22.01      62.65      84.66        0.29   128.78   0.791
  sub102                   106.97       0.00       0.00       8.02      25.08      58.15      83.23        0.25   109.72   0.778
  sub103                   106.97       0.00       0.00       8.23      22.99      58.39      81.38        0.39   161.53   0.761
  sub104                   106.97       0.00       0.00       8.23      22.98      57.77      80.75        0.42   174.63   0.755
  sub105                   106.97       0.00       0.00       8.54      19.87      59.91      79.79        0.46   180.62   0.746
  sub106                   106.97       0.00       0.00       8.33      21.98      60.91      82.89        0.42   182.12   0.775
  sub107                   106.97       0.00       0.00       7.04      16.43      54.51      70.94        0.50   238.53   0.663
  sub108                   106.97       0.00       0.00       8.65      18.93      68.62      87.56        0.82   413.04   0.818
  sub109                   106.97       0.00       0.00       6.16      34.44      50.23      84.67        1.21   746.06   0.792
  sub110                   106.97       0.00       0.00       1.67      75.22      14.33      89.55        1.88  1434.72   0.837
  sub111                   106.97       0.00       0.00       2.74      77.05      23.22     100.27        0.86   638.76   0.937
  sub112                   106.97       0.00       0.00       2.22      82.27      18.90     101.18        0.80   605.37   0.946
  sub113                   106.97       0.00       0.00       1.48      89.51      12.71     102.23        0.71   540.98   0.956
  sub114                   106.97       0.00       0.00       1.37      90.58      11.83     102.40        0.68   520.94   0.957
  sub115                   106.97       0.00       0.00       1.05      76.16       9.09      85.25        0.63   488.05   0.797
  sub116                   106.97       0.00       0.00       4.22      62.44      34.70      97.13        0.18   122.16   0.908
  sub117                   106.97       0.00       0.00       4.33      61.53      35.86      97.39        0.45   310.13   0.910
  

  ***********************
  LID Performance Summary
  ***********************

  --------------------------------------------------------------------------------------------------------------------
                                         Total      Evap     Infil   Surface    Drain    Initial     Final  Continuity
                                        Inflow      Loss      Loss   Outflow   Outflow   Storage   Storage       Error
  Subcatchment      LID Control             mm        mm        mm        mm        mm        mm        mm           %
  --------------------------------------------------------------------------------------------------------------------
  sub1              GreenRoof           106.97      0.00      0.00      0.00      0.00      7.05    114.02        0.00
  sub2              GreenRoof           106.97      0.00      0.00      0.00      0.00      7.05    114.02        0.00
  sub3              GreenRoof           106.97      0.00      0.00      0.00      0.00      7.05    114.02        0.00
  sub4              GreenRoof           106.97      0.00      0.00      0.00      0.00      7.05    114.02        0.00
  sub5              GreenRoof           106.97      0.00      0.00      0.00      0.00      7.05    114.02        0.00
  sub6              GreenRoof           106.97      0.00      0.00      0.00      0.00      7.05    114.02        0.00
  sub7              GreenRoof           106.97      0.00      0.00      0.00      0.00      7.05    114.02        0.00
  sub8              GreenRoof           106.97      0.00      0.00      0.00      0.00      7.05    114.02        0.00
  sub9              GreenRoof           106.97      0.00      0.00      0.00      0.00      7.05    114.02        0.00
  sub10             GreenRoof           106.97      0.00      0.00      0.00      0.00      7.05    114.02        0.00
  sub11             GreenRoof           106.97      0.00      0.00      0.00      0.00      7.05    114.02        0.00
  sub12             GreenRoof           106.97      0.00      0.00      0.00      0.00      7.05    114.02        0.00
  sub13             GreenRoof           106.97      0.00      0.00      0.00      0.00      7.05    114.02        0.00
  sub14             GreenRoof           106.97      0.00      0.00      0.00      0.00      7.05    114.02        0.00
  sub15             GreenRoof           106.97      0.00      0.00      0.00      0.00      7.05    114.02        0.00
  sub16             GreenRoof           106.97      0.00      0.00      0.00      0.00      7.05    114.02        0.00
  sub17             GreenRoof           106.97      0.00      0.00      0.00      0.00      7.05    114.02        0.00
  sub18             GreenRoof           106.97      0.00      0.00      0.00      0.00      7.05    114.02        0.00
  sub19             GreenRoof           106.97      0.00      0.00      0.00      0.00      7.05    114.02        0.00
  sub20             GreenRoof           106.97      0.00      0.00      0.00      0.00      7.05    114.02        0.00
  sub21             GreenRoof           106.97      0.00      0.00      0.00      0.00      7.05    114.02        0.00
  sub22             GreenRoof           106.97      0.00      0.00      0.00      0.00      7.05    114.02        0.00
  sub23             GreenRoof           106.97      0.00      0.00      0.00      0.00      7.05    114.02        0.00
  sub24             GreenRoof           106.97      0.00      0.00      0.00      0.00      7.05    114.02        0.00
  sub25             GreenRoof           106.97      0.00      0.00      0.00      0.00      7.05    114.02        0.00
  sub26             GreenRoof           106.97      0.00      0.00      0.00      0.00      7.05    114.02        0.00
  sub27             GreenRoof           106.97      0.00      0.00      0.00      0.00      7.05    114.02        0.00
  sub28             GreenRoof           106.97      0.00      0.00      0.00      0.00      7.05    114.02        0.00
  sub29             GreenRoof           106.97      0.00      0.00      0.00      0.00      7.05    114.02        0.00
  sub30             GreenRoof           106.97      0.00      0.00      0.00      0.00      7.05    114.02        0.00
  sub31             GreenRoof           106.97      0.00      0.00      0.00      0.00      7.05    114.02        0.00
  sub32             GreenRoof           106.97      0.00      0.00      0.00      0.00      7.05    114.02        0.00
  sub33             GreenRoof           106.97      0.00      0.00      0.00      0.00      7.05    114.02        0.00
  sub35             GreenRoof           106.97      0.00      0.00      0.00      0.00      7.05    114.02        0.00
  sub37             GreenRoof           106.97      0.00      0.00      0.00      0.00      7.05    114.02        0.00
  sub38             GreenRoof           106.97      0.00      0.00      0.00      0.00      7.05    114.02        0.00
  sub39             GreenRoof           106.97      0.00      0.00      0.00      0.00      7.05    114.02        0.00
  sub40             GreenRoof           106.97      0.00      0.00      0.00      0.00      7.05    114.02        0.00
  sub41             GreenRoof           106.97      0.00      0.00      0.00      0.00      7.05    114.02        0.00
  sub42             GreenRoof           106.97      0.00      0.00      0.00      0.00      7.05    114.02        0.00
  sub43             GreenRoof           106.97      0.00      0.00      0.00      0.00      7.05    114.02        0.00
  sub44             GreenRoof           106.97      0.00      0.00      0.00      0.00      7.05    114.02        0.00
  sub45             GreenRoof           106.97      0.00      0.00      0.00      0.00      7.05    114.02        0.00
  sub46             GreenRoof           106.97      0.00      0.00      0.00      0.00      7.05    114.02        0.00
  sub47             GreenRoof           106.97      0.00      0.00      0.00      0.00      7.05    114.02        0.00
  sub48             GreenRoof           106.97      0.00      0.00      0.00      0.00      7.05    114.02        0.00
  sub49             GreenRoof           106.97      0.00      0.00      0.00      0.00      7.05    114.02        0.00
  sub50             GreenRoof           106.97      0.00      0.00      0.00      0.00      7.05    114.02        0.00
  sub51             GreenRoof           106.97      0.00      0.00      0.00      0.00      7.05    114.02        0.00
  sub52             GreenRoof           106.97      0.00      0.00      0.00      0.00      7.05    114.02        0.00
  sub53             GreenRoof           106.97      0.00      0.00      0.00      0.00      7.05    114.02        0.00
  sub54             GreenRoof           106.97      0.00      0.00      0.00      0.00      7.05    114.02        0.00
  sub55             GreenRoof           106.97      0.00      0.00      0.00      0.00      7.05    114.02        0.00
  sub56             GreenRoof           106.97      0.00      0.00      0.00      0.00      7.05    114.02        0.00
  sub57             GreenRoof           106.97      0.00      0.00      0.00      0.00      7.05    114.02        0.00
  sub58             GreenRoof           106.97      0.00      0.00      0.00      0.00      7.05    114.02        0.00
  sub59             GreenRoof           106.97      0.00      0.00      0.00      0.00      7.05    114.02        0.00
  sub60             GreenRoof           106.97      0.00      0.00      0.00      0.00      7.05    114.02        0.00
  sub61             GreenRoof           106.97      0.00      0.00      0.00      0.00      7.05    114.02        0.00
  sub62             GreenRoof           106.97      0.00      0.00      0.00      0.00      7.05    114.02        0.00
  sub67             GreenRoof           106.97      0.00      0.00      0.00      0.00      7.05    114.02        0.00
  sub68             GreenRoof           106.97      0.00      0.00      0.00      0.00      7.05    114.02        0.00
  sub71             GreenRoof           106.97      0.00      0.00      0.00      0.00      7.05    114.02        0.00
  sub72             GreenRoof           106.97      0.00      0.00      0.00      0.00      7.05    114.02        0.00
  sub78             GreenRoof           106.97      0.00      0.00      0.00      0.00      7.05    114.02        0.00
  sub84             GreenRoof           106.97      0.00      0.00      0.00      0.00      7.05    114.02        0.00
  sub85             GreenRoof           106.97      0.00      0.00      0.00      0.00      7.05    114.02        0.00
  sub107            GreenRoof           106.97      0.00      0.00      0.00      0.00      7.05    114.02        0.00
  sub109            GreenRoof           106.97      0.00      0.00      0.00      0.00      7.05    114.02        0.00
  sub110            GreenRoof           106.97      0.00      0.00      0.00      0.00      7.05    114.02        0.00
  sub115            GreenRoof           106.97      0.00      0.00      0.00      0.00      7.05    114.02        0.00
  
  ******************
  Node Depth Summary
  ******************
  
  ---------------------------------------------------------------------------------
                                 Average  Maximum  Maximum  Time of Max    Reported
                                   Depth    Depth      HGL   Occurrence   Max Depth
  Node                 Type       Meters   Meters   Meters  days hr:min      Meters
  ---------------------------------------------------------------------------------
  WS02001211           JUNCTION     1.03     2.31     7.15     0  00:47        1.78
  WS02001212           JUNCTION     0.79     1.97     7.03     0  00:47        1.55
  WS02001213           JUNCTION     1.04     2.21     6.97     0  00:47        1.85
  WS02003069           JUNCTION     0.99     1.69     6.28     0  00:51        1.68
  WS02003072           JUNCTION     1.05     1.58     5.96     0  00:51        1.57
  WS02003073           JUNCTION     1.27     1.71     5.77     0  00:51        1.70
  WS02003076           JUNCTION     1.01     1.36     5.58     0  00:51        1.36
  WS02003060           JUNCTION     0.87     1.68     6.61     0  00:51        1.67
  WS02003066           JUNCTION     0.52     1.16     6.72     0  00:51        1.16
  WS02003059           JUNCTION     1.11     1.94     6.63     0  00:47        1.92
  WS02003115           JUNCTION     2.05     2.76     9.62     0  00:32        2.73
  WS02003116           JUNCTION     2.20     3.03     9.74     0  00:23        2.93
  WS02003118           JUNCTION     2.19     2.90     9.52     0  00:23        2.90
  WS02003215           JUNCTION     2.07     2.80     9.66     0  00:32        2.80
  WS02003110           JUNCTION     1.69     2.37     9.63     0  00:51        2.37
  WS02003111           JUNCTION     1.81     2.35     9.44     0  00:32        2.35
  WS02005155           JUNCTION     1.67     2.51     9.82     0  00:51        2.51
  WS02005154           JUNCTION     1.43     2.44    10.08     0  00:51        2.44
  WS02005193           JUNCTION     1.55     3.18    11.00     0  00:45        3.01
  WS02005196           JUNCTION     1.52     3.31    11.16     0  00:27        2.97
  WS02003067           JUNCTION     0.86     1.48     6.80     0  00:51        1.48
  WS02004401           JUNCTION     1.51     2.54     8.54     0  00:49        2.46
  WS02004402           JUNCTION     1.50     2.56     8.52     0  00:49        2.46
  WS02004403           JUNCTION     1.49     2.56     8.49     0  00:49        2.47
  WS02004404           JUNCTION     1.53     2.62     8.47     0  00:49        2.52
  WS02004406           JUNCTION     1.47     2.58     8.41     0  00:49        2.49
  WS02004409           JUNCTION     1.24     2.39     8.16     0  00:49        2.29
  WS02004410           JUNCTION     1.13     2.10     7.82     0  00:51        2.10
  WS02004411           JUNCTION     1.05     1.88     7.56     0  00:51        1.87
  WS02004412           JUNCTION     0.95     1.65     7.29     0  00:51        1.64
  WS02004413           JUNCTION     0.99     1.55     7.02     0  00:51        1.54
  WS02004405           JUNCTION     1.51     2.60     8.45     0  00:49        2.51
  WS02006109           JUNCTION     2.01     2.64     9.26     0  00:42        2.64
  WS02006110           JUNCTION     1.81     2.48     9.07     0  00:59        2.48
  WS02006111           JUNCTION     1.20     2.00     8.70     0  00:53        1.99
  WS02006112           JUNCTION     1.82     2.68     8.56     0  00:00        2.68
  WS02006113           JUNCTION     1.28     2.00     8.89     0  00:49        1.99
  WS02006115           JUNCTION     1.48     2.43     8.57     0  00:49        2.38
  WS02006116           JUNCTION     1.53     2.52     8.56     0  00:49        2.45
  WS02006230           JUNCTION     2.08     2.65     9.39     0  00:38        2.65
  WS02006231           JUNCTION     1.67     2.19     9.31     0  01:03        2.19
  WS02006232           JUNCTION     1.71     2.18     9.22     0  00:38        2.18
  WS02006234           JUNCTION     1.54     1.96     9.12     0  00:36        1.96
  WS02006235           JUNCTION     1.52     1.93     9.10     0  01:36        1.93
  WS02006238           JUNCTION     1.53     1.93     9.08     0  01:02        1.93
  WS02006240           JUNCTION     1.31     1.63     8.92     0  00:40        1.62
  WS02006242           JUNCTION     1.28     1.55     8.82     0  00:24        1.55
  WS02006243           JUNCTION     1.12     1.48     8.90     0  00:26        1.37
  WS02006245           JUNCTION     1.04     1.27     8.76     0  01:48        1.27
  WS02006247           JUNCTION     1.02     1.23     8.73     0  00:41        1.23
  WS02006248           JUNCTION     0.93     1.10     8.69     0  00:26        1.10
  WS02006249           JUNCTION     0.93     1.09     8.69     0  00:26        1.09
  WS02006239           JUNCTION     1.42     1.79     9.00     0  01:26        1.78
  WS02006251           JUNCTION     1.43     2.21     9.88     0  00:45        2.17
  WS02006252           JUNCTION     1.00     1.50     9.74     0  00:45        1.50
  WS02006253           JUNCTION     1.72     3.18    10.83     0  00:51        3.18
  WS02006256           JUNCTION     1.91     2.35     9.28     0  00:16        2.35
  WS02004138           JUNCTION     0.12     0.14     7.39     0  00:33        0.14
  WS02004139           JUNCTION     0.96     2.27     7.18     0  00:47        1.71
  WS02004407           JUNCTION     0.88     2.13     8.44     0  00:49        1.96
  WS02006228           JUNCTION     2.23     3.03     9.68     0  00:52        3.02
  WS02006229           JUNCTION     2.34     3.23     9.92     0  00:49        3.22
  WS02006280           JUNCTION     1.04     1.75    10.02     0  01:01        1.74
  WS02006284           JUNCTION     1.20     1.95    10.35     0  00:54        1.94
  WS02006287           JUNCTION     0.95     1.74    10.70     0  00:48        1.74
  WS02003091           JUNCTION     2.99     4.43    10.23     0  00:00        3.91
  WS02003203           JUNCTION     2.93     3.83     9.82     0  00:00        3.83
  WS6145               JUNCTION     0.44     2.35    10.45     0  00:50        2.29
  WS6147               JUNCTION     0.37     2.27    10.54     0  00:50        2.16
  WS6150               JUNCTION     0.36     2.24    10.57     0  00:50        2.11
  WS6152               JUNCTION     0.37     2.20    10.54     0  00:50        2.14
  WS6155               JUNCTION     0.33     2.10    10.50     0  00:49        2.09
  WS6156               JUNCTION     0.31     2.05    10.52     0  00:50        2.05
  WS6136               JUNCTION     0.38     1.90    10.85     0  00:50        1.90
  WS6140               JUNCTION     0.49     2.46    10.40     0  00:51        2.44
  WS6142               JUNCTION     0.44     2.34    10.42     0  00:51        2.30
  WS6325               JUNCTION     0.71     2.74    10.40     0  00:51        2.72
  WS6327               JUNCTION     0.57     2.58    10.40     0  00:51        2.56
  WS6329               JUNCTION     0.52     2.52    10.41     0  00:51        2.50
  WS6332               JUNCTION     0.45     2.54    10.57     0  00:49        2.35
  WS6158               JUNCTION     0.29     2.05    10.59     0  00:50        2.05
  WS6335               JUNCTION     0.44     2.60    10.67     0  00:49        2.31
  WS6338               JUNCTION     0.38     2.55    10.75     0  00:49        2.19
  WS6340               JUNCTION     0.34     2.50    10.84     0  00:49        2.05
  WS6342               JUNCTION     0.27     2.50    11.10     0  00:49        1.79
  WS6135               JUNCTION     0.87     2.89    10.39     0  00:51        2.88
  WS6396               JUNCTION     0.55     2.02     9.57     0  00:51        2.00
  WS6399               JUNCTION     0.34     1.37     8.80     0  00:51        1.35
  WS02003082           JUNCTION     1.43     1.93     7.00     0  00:53        1.92
  WS02003077           JUNCTION     0.49     0.84     5.85     0  00:51        0.84
  WS02003080           JUNCTION     0.93     1.30     6.24     0  00:51        1.30
  WS02003083           JUNCTION     1.83     2.41     7.44     0  00:51        2.40
  WS02003084           JUNCTION     1.97     2.60     7.70     0  00:54        2.60
  WS02003085           JUNCTION     2.06     2.72     7.89     0  00:53        2.71
  WS02003086           JUNCTION     2.31     3.02     8.22     0  00:58        3.01
  WS02003087           JUNCTION     2.59     3.36     8.57     0  00:51        3.35
  WS02003088           JUNCTION     2.80     4.14     9.43     0  00:00        4.07
  WS02003089           JUNCTION     2.93     4.34     9.80     0  00:00        4.02
  WS02003090           JUNCTION     3.15     4.12     9.55     0  00:00        4.05
  WS02003081           JUNCTION     1.16     1.61     6.66     0  00:53        1.60
  WS02003122           JUNCTION     2.38     3.30     9.67     0  00:22        3.10
  WS02003187           JUNCTION     2.40     3.11     9.44     0  00:22        3.11
  WS02003188           JUNCTION     2.37     2.97     9.23     0  00:22        2.97
  WS02003190           JUNCTION     2.35     2.84     9.04     0  00:30        2.84
  WS02003193           JUNCTION     2.34     2.85     9.09     0  00:22        2.85
  WS02003195           JUNCTION     2.37     2.93     9.18     0  00:30        2.93
  WS02003196           JUNCTION     2.49     3.13     9.31     0  00:51        3.13
  WS02003198           JUNCTION     2.53     3.24     9.42     0  00:51        3.24
  WS02003200           JUNCTION     2.29     2.99     9.43     0  00:30        2.93
  WS02003201           JUNCTION     2.57     3.22     9.36     0  00:30        3.22
  WS02003202           JUNCTION     2.72     4.17    10.23     0  00:00        3.48
  WS02004041           JUNCTION     0.68     0.98     5.34     0  00:51        0.98
  WSA6400              JUNCTION     1.18     2.42     8.26     0  00:51        2.41
  WS6400               JUNCTION     0.51     1.69     8.35     0  00:51        1.68
  WSF208               JUNCTION     0.87     1.95     8.04     0  00:51        1.94
  WSF207               JUNCTION     0.76     1.69     7.83     0  00:51        1.69
  WSF206               JUNCTION     0.85     1.74     7.67     0  00:51        1.73
  WSF205               JUNCTION     0.78     1.61     7.52     0  00:51        1.60
  WSF204               JUNCTION     1.30     2.17     7.32     0  00:51        2.16
  WSF203               JUNCTION     0.67     1.36     7.07     0  00:51        1.35
  WSF202               JUNCTION     0.59     1.20     6.92     0  00:51        1.19
  WSF201               JUNCTION     0.50     1.04     6.77     0  00:51        1.03
  WSF200               JUNCTION     0.67     1.45     6.69     0  00:51        1.45
  HS02004901           JUNCTION     0.78     1.42    11.24     0  00:42        1.42
  HS02004881           JUNCTION     0.63     2.15    11.18     0  00:45        1.91
  HS02004876           JUNCTION     0.77     2.18    11.21     0  00:51        2.18
  HS02004870           JUNCTION     0.67     2.10    11.39     0  00:45        2.05
  HS02004862           JUNCTION     0.67     2.00    11.38     0  00:45        2.00
  HS02004856           JUNCTION     0.70     2.07    11.50     0  00:45        2.07
  HS02004852           JUNCTION     0.65     2.12    11.63     0  00:45        2.00
  HS02004848           JUNCTION     0.62     2.07    11.67     0  00:45        1.92
  HS02004842           JUNCTION     0.94     2.22    11.49     0  00:45        2.22
  HS02004837           JUNCTION     0.65     1.98    11.56     0  00:45        1.93
  HS02004830           JUNCTION     0.73     2.03    11.50     0  00:45        2.00
  HS02004824           JUNCTION     0.77     2.01    11.41     0  00:45        2.01
  HS02004817           JUNCTION     1.25     2.44    11.29     0  00:45        2.41
  HS02004807           JUNCTION     0.93     1.92    11.09     0  00:45        1.92
  HS02004802           JUNCTION     0.93     1.80    10.93     0  00:48        1.80
  HS02004799           JUNCTION     1.02     1.76    10.97     0  00:43        1.76
  HS02004792           JUNCTION     0.82     1.60    11.12     0  00:40        1.60
  HS02004788           JUNCTION     0.62     1.42    11.32     0  00:43        1.42
  HS02004785           JUNCTION     0.66     1.49    11.39     0  00:42        1.39
  HS02004777           JUNCTION     0.79     1.48    11.28     0  00:42        1.47
  HS02004770           JUNCTION     0.77     1.42    11.25     0  00:42        1.42
  HS02004480           JUNCTION     0.91     1.66    10.90     0  00:45        1.64
  HS02004479           JUNCTION     0.95     1.68    10.89     0  00:45        1.66
  HS02004478           JUNCTION     0.81     1.59    10.82     0  00:48        1.58
  HS02004053           JUNCTION     0.30     1.90    10.67     0  00:49        1.10
  HS02004052           JUNCTION     0.37     1.50    11.15     0  00:49        1.39
  HS02004049           JUNCTION     0.22     1.04    11.73     0  00:49        0.86
  HS02004048           JUNCTION     0.50     1.70    12.60     0  00:48        1.70
  HS02004046           JUNCTION     0.48     1.80    13.52     0  00:48        1.80
  HS02004043           JUNCTION     0.29     2.24    14.93     0  00:50        2.24
  HS02004041           JUNCTION     0.17     1.99    17.43     0  00:50        1.77
  HS02004038           JUNCTION     0.14     0.42    19.10     0  00:51        0.41
  HS02004036           JUNCTION     0.00     0.00    22.46     0  00:00        0.00
  HS02004034           JUNCTION     0.00     0.00    26.83     0  00:00        0.00
  HS02004028           JUNCTION     0.21     0.51    37.36     0  00:48        0.51
  HS02004027           JUNCTION     0.16     0.34    36.46     0  00:48        0.34
  HS02004026           JUNCTION     0.17     0.35    35.75     0  00:48        0.35
  HS02004024           JUNCTION     0.18     0.41    34.63     0  00:48        0.41
  HS02004022           JUNCTION     0.25     0.80    33.84     0  00:47        0.80
  HS02004021           JUNCTION     0.30     0.81    32.54     0  00:45        0.81
  HS02004019           JUNCTION     0.38     0.80    31.76     0  00:43        0.80
  HS02004018           JUNCTION     0.27     0.60    33.81     0  00:46        0.60
  HS02004017           JUNCTION     0.25     0.53    34.37     0  00:46        0.53
  HS02004013           JUNCTION     0.19     0.72    35.86     0  00:50        0.72
  HS02004010           JUNCTION     0.07     0.22    38.09     0  00:51        0.22
  HS02003174           JUNCTION     0.19     0.49     6.03     0  00:52        0.49
  HS02003171           JUNCTION     0.21     0.55     6.23     0  00:52        0.55
  HS02003170           JUNCTION     0.25     0.50     6.96     0  00:52        0.50
  HS02003168           JUNCTION     0.13     0.34     6.84     0  00:52        0.34
  HS02003166           JUNCTION     0.24     0.51     6.99     0  00:52        0.51
  HS02003162           JUNCTION     0.25     0.42    30.67     0  00:43        0.42
  HS02003160           JUNCTION     0.19     0.40    28.45     0  00:51        0.40
  HS02003150           JUNCTION     0.20     0.42    26.44     0  00:51        0.42
  HS02003148           JUNCTION     0.22     0.53    22.27     0  00:51        0.53
  HS02003145           JUNCTION     0.28     0.81    14.68     0  00:49        0.81
  HS02003143           JUNCTION     0.41     0.80    13.27     0  00:40        0.80
  HS02003138           JUNCTION     0.24     0.59     7.08     0  01:43        0.59
  HS02003136           JUNCTION     1.53     2.28    10.00     0  00:00        2.28
  HS02003125           JUNCTION     1.59     2.38     9.83     0  00:32        2.29
  HS02003122           JUNCTION     1.63     2.41     9.84     0  00:32        2.40
  HS02003119           JUNCTION     1.39     2.42    10.14     0  00:32        2.19
  HS02003116           JUNCTION     1.06     2.33    10.46     0  00:32        1.78
  HS02003111           JUNCTION     0.47     0.90     9.91     0  00:51        0.89
  HS02003108           JUNCTION     0.38     0.99    10.10     0  00:46        0.85
  HS02003100           JUNCTION     0.27     0.79    10.02     0  00:52        0.76
  HS02003088           JUNCTION     0.22     0.79    10.08     0  00:52        0.74
  HS02003084           JUNCTION     0.10     0.67    10.10     0  00:52        0.62
  HS02003079           JUNCTION     0.07     0.57    10.08     0  00:52        0.55
  HS02003077           JUNCTION     0.01     0.34    10.08     0  00:52        0.34
  HS02003065           JUNCTION     0.73     1.64    10.88     0  00:50        1.64
  HS02003056           JUNCTION     0.77     1.76    10.70     0  00:48        1.74
  HS02003053           JUNCTION     0.54     1.66    10.96     0  00:48        1.62
  HS02003042           JUNCTION     0.37     1.69    11.35     0  00:48        1.40
  HS02003039           JUNCTION     0.40     1.80    11.45     0  00:48        1.49
  HS02003036           JUNCTION     0.21     1.41    11.47     0  00:48        1.28
  HS02003028           JUNCTION     0.33     1.40    11.14     0  00:47        1.40
  HS02003021           JUNCTION     0.35     1.55    10.92     0  00:47        1.49
  HS02003018           JUNCTION     0.37     1.48    10.69     0  00:47        1.48
  HS02003017           JUNCTION     0.37     1.48    10.64     0  00:47        1.48
  HS02003013           JUNCTION     0.37     1.47    10.52     0  00:47        1.42
  HS02003010           JUNCTION     0.39     1.46    10.27     0  00:47        1.30
  HS02003007           JUNCTION     0.34     1.35     9.96     0  00:47        1.09
  HS02003004           JUNCTION     0.43     1.08     9.40     0  00:47        0.99
  HS02003001           JUNCTION     0.12     0.31     8.60     0  00:52        0.31
  YS02001738           JUNCTION     0.00     0.00     8.89     0  00:00        0.00
  YS02001739           JUNCTION     0.00     0.00     8.37     0  00:00        0.00
  YS02001742           JUNCTION     0.00     0.00     8.49     0  00:00        0.00
  YS02001745           JUNCTION     0.14     0.35     7.86     0  00:52        0.34
  YS02001748           JUNCTION     0.17     0.85     7.93     0  00:52        0.83
  YS02001751           JUNCTION     0.18     2.20     9.08     0  00:52        1.00
  YS02001754           JUNCTION     0.22     2.20     8.81     0  00:51        1.23
  YS02001762           JUNCTION     0.44     2.15     8.55     0  00:51        1.73
  YS02001765           JUNCTION     0.42     2.10     8.55     0  00:51        1.74
  YS02001767           JUNCTION     0.43     2.03     8.52     0  00:51        1.80
  YS02001770           JUNCTION     0.49     1.95     8.44     0  00:51        1.95
  YS02001774           JUNCTION     0.56     2.03     8.45     0  00:51        1.99
  YS02001779           JUNCTION     0.31     1.68     8.37     0  00:51        1.68
  YS02001882           JUNCTION     0.79     1.83     8.55     0  00:45        1.68
  YS02001884           JUNCTION     0.88     1.90     8.52     0  00:45        1.78
  YS02001759           JUNCTION     0.44     2.21     8.57     0  00:51        1.70
  YS02001887           JUNCTION     0.96     1.91     8.45     0  00:45        1.86
  YS02001890           JUNCTION     0.98     1.81     8.32     0  00:45        1.81
  YS02001898           JUNCTION     0.75     1.77     8.51     0  00:45        1.56
  YS02001901           JUNCTION     0.85     1.69     8.30     0  00:46        1.68
  YS02001904           JUNCTION     0.83     1.65     8.28     0  00:46        1.63
  YS02001907           JUNCTION     1.15     1.96     8.25     0  00:46        1.96
  YS02001910           JUNCTION     0.98     2.01     8.52     0  00:52        2.01
  YS02001915           JUNCTION     0.81     2.00     8.72     0  00:51        2.00
  YS02001918           JUNCTION     0.54     1.81     8.88     0  00:48        1.77
  YS02001920           JUNCTION     0.63     2.11     9.12     0  00:48        1.90
  YS02001923           JUNCTION     0.45     2.03     9.29     0  00:48        1.70
  YS02001926           JUNCTION     0.45     1.90     9.35     0  00:48        1.57
  YS02001929           JUNCTION     0.30     1.78     9.47     0  00:48        1.76
  YS02001932           JUNCTION     0.21     1.65     9.45     0  00:52        1.31
  YS02001935           JUNCTION     0.15     1.43     9.36     0  00:48        1.20
  YS02001757           JUNCTION     0.43     2.10     8.36     0  00:51        1.61
  YS02001895           JUNCTION     0.75     1.58     8.32     0  00:46        1.56
  YS02005679           JUNCTION     0.00     0.02    10.26     0  00:51        0.02
  YS02005559           JUNCTION     0.12     0.27    10.22     0  00:53        0.27
  YS02005651           JUNCTION     0.08     0.22    10.99     0  00:51        0.22
  YS02005670           JUNCTION     0.09     0.25    10.71     0  00:51        0.25
  YS02005547           JUNCTION     0.06     0.17    10.71     0  00:51        0.17
  YS02005549           JUNCTION     0.09     0.59    11.50     0  00:50        0.41
  YS02005550           JUNCTION     0.13     0.56    11.19     0  00:50        0.54
  YS02005551           JUNCTION     0.07     0.17    10.54     0  00:52        0.17
  YS02005553           JUNCTION     0.15     0.47    10.83     0  00:53        0.47
  YS02005554           JUNCTION     0.07     0.16    10.40     0  00:53        0.16
  YS02005556           JUNCTION     0.15     0.45    10.50     0  00:50        0.39
  YS02005557           JUNCTION     0.08     0.16    10.13     0  00:53        0.16
  YS02005560           JUNCTION     0.09     0.18     9.92     0  00:53        0.18
  YS02005562           JUNCTION     0.13     0.27    10.01     0  00:53        0.27
  YS02005563           JUNCTION     0.08     0.16     9.82     0  00:53        0.16
  YS02005565           JUNCTION     0.12     0.29     9.99     0  00:52        0.29
  YS02005566           JUNCTION     0.10     0.21     9.60     0  00:53        0.21
  YS02005568           JUNCTION     0.17     0.54    10.04     0  00:53        0.53
  YS02005569           JUNCTION     0.12     0.25     9.58     0  00:53        0.25
  YS02005598           JUNCTION     0.28     1.07    10.91     0  00:46        1.07
  YS02005600           JUNCTION     0.26     1.02    10.68     0  00:46        1.02
  YS02005602           JUNCTION     0.59     2.15    10.43     0  00:46        2.15
  YS02005603           JUNCTION     0.18     1.08     9.21     0  00:46        0.58
  YS02005609           JUNCTION     0.10     0.43     9.32     0  00:51        0.34
  YS02005653           JUNCTION     0.17     0.87    11.84     0  00:50        0.87
  YS02005654           JUNCTION     0.17     0.65    11.41     0  00:52        0.65
  YS02005655           JUNCTION     0.06     0.15    10.78     0  00:50        0.15
  YS02005595           JUNCTION     0.41     1.36    11.04     0  00:44        1.36
  YS02005658           JUNCTION     0.14     0.71    11.61     0  00:52        0.71
  YS02005659           JUNCTION     0.07     0.17    10.83     0  00:52        0.17
  YS02005661           JUNCTION     0.17     0.91    11.62     0  00:52        0.91
  YS02005662           JUNCTION     0.06     0.16    10.77     0  00:52        0.16
  YS02005664           JUNCTION     0.17     0.80    11.38     0  00:52        0.80
  YS02005665           JUNCTION     0.05     0.14    10.70     0  00:52        0.14
  YS02005668           JUNCTION     0.05     0.14    10.31     0  00:52        0.14
  YS02005667           JUNCTION     0.30     0.90    10.92     0  00:51        0.90
  YS02005571           JUNCTION     0.23     0.87    10.36     0  00:51        0.85
  YS02005572           JUNCTION     0.15     0.56     9.92     0  00:51        0.52
  YS02005576           JUNCTION     0.16     0.73    10.49     0  00:51        0.69
  YS02005577           JUNCTION     0.13     0.69    10.18     0  00:51        0.48
  YS02005579           JUNCTION     0.32     1.12    10.74     0  00:50        1.12
  YS02005580           JUNCTION     0.20     0.93    10.46     0  00:50        0.69
  YS02005582           JUNCTION     0.37     0.86    10.94     0  00:48        0.86
  YS02005583           JUNCTION     0.19     0.70    10.70     0  00:48        0.42
  YS02005612           JUNCTION     0.51     1.59     9.72     0  00:50        1.59
  YS02005615           JUNCTION     0.06     0.17    11.66     0  00:51        0.17
  YS02005616           JUNCTION     0.05     0.13    10.95     0  00:51        0.13
  YS02005618           JUNCTION     0.10     0.48    11.34     0  00:50        0.41
  YS02005619           JUNCTION     0.06     0.16    10.71     0  00:51        0.16
  YS02005621           JUNCTION     0.11     0.56    11.67     0  00:50        0.46
  YS02005622           JUNCTION     0.05     0.13    11.09     0  00:51        0.13
  YS02005625           JUNCTION     0.04     0.11    11.13     0  00:51        0.11
  YS02005627           JUNCTION     0.13     0.54    11.47     0  00:51        0.54
  YS02005628           JUNCTION     0.05     0.12    11.02     0  00:51        0.12
  YS02005630           JUNCTION     0.12     0.61    11.68     0  00:51        0.61
  YS02005631           JUNCTION     0.06     0.14    11.02     0  00:52        0.14
  YS02005633           JUNCTION     0.12     0.64    11.77     0  00:51        0.64
  YS02005634           JUNCTION     0.06     0.16    10.99     0  00:52        0.16
  YS02005636           JUNCTION     0.14     0.78    11.78     0  00:51        0.78
  YS02005637           JUNCTION     0.07     0.18    10.95     0  00:52        0.18
  YS02005639           JUNCTION     0.12     0.66    11.29     0  00:51        0.66
  YS02005640           JUNCTION     0.07     0.18    10.51     0  00:52        0.18
  YS02005642           JUNCTION     0.10     1.11    11.94     0  00:51        0.80
  YS02005644           JUNCTION     0.16     0.87    11.98     0  00:50        0.87
  YS02005645           JUNCTION     0.08     0.22    11.03     0  00:50        0.22
  YS02005647           JUNCTION     0.24     1.03    11.92     0  00:50        1.03
  YS02005648           JUNCTION     0.09     0.23    11.02     0  00:50        0.23
  YS02005650           JUNCTION     0.19     1.02    11.91     0  00:51        1.02
  YS02005671           JUNCTION     0.04     0.11    10.34     0  00:51        0.11
  YS02005673           JUNCTION     0.09     0.47    10.82     0  00:51        0.37
  YS02005674           JUNCTION     0.06     0.16    10.05     0  00:51        0.16
  YS02005676           JUNCTION     0.00     0.02    10.26     0  00:51        0.02
  YS02005680           JUNCTION     0.06     0.16    10.26     0  00:51        0.16
  YS02005682           JUNCTION     0.00     0.00    10.06     0  00:00        0.00
  YS02005683           JUNCTION     0.04     0.09     9.99     0  00:51        0.09
  YS02005376           JUNCTION     0.83     1.01    11.10     0  00:27        1.01
  YS02005378           JUNCTION     1.37     1.62    11.15     0  00:27        1.61
  YS02005381           JUNCTION     1.27     1.57    11.20     0  00:27        1.57
  YS02005624           JUNCTION     0.24     0.62    11.50     0  00:51        0.62
  YS02005384           JUNCTION     0.41     1.02    10.67     0  00:27        0.53
  YS02005677           JUNCTION     0.07     0.18    10.26     0  00:51        0.18
  YSB1105              JUNCTION     0.28     0.55    10.03     0  00:52        0.55
  YSB1106              JUNCTION     0.28     1.68    11.52     0  00:49        0.78
  YSB1109              JUNCTION     0.35     1.66    11.60     0  00:49        1.11
  YSB1112              JUNCTION     0.36     1.73    11.86     0  00:49        1.34
  YSB1115              JUNCTION     0.34     1.90    12.20     0  00:49        1.33
  YSB1118              JUNCTION     0.36     1.80    12.34     0  00:49        1.46
  YSB1121              JUNCTION     0.43     1.70    12.37     0  00:49        1.70
  YSB1124              JUNCTION     0.28     1.60    12.43     0  00:49        1.55
  YSB1128              JUNCTION     0.50     1.85    12.43     0  00:43        1.85
  YSB1132              JUNCTION     0.56     1.90    12.35     0  00:43        1.88
  YSB1228              JUNCTION     0.06     0.19    11.03     0  00:51        0.18
  YSB1202              JUNCTION     1.01     1.50    12.39     0  00:40        1.50
  YSB1135              JUNCTION     0.69     2.00    12.26     0  00:43        1.96
  YSB1138              JUNCTION     0.78     1.90    12.07     0  00:43        1.90
  YSB1141              JUNCTION     0.81     1.98    11.81     0  00:43        1.98
  YSB1145              JUNCTION     0.82     1.97    11.66     0  00:43        1.97
  YSB1148              JUNCTION     0.89     2.00    11.50     0  00:43        1.97
  YSB1151              JUNCTION     1.07     2.07    11.30     0  00:43        2.03
  YSB1154              JUNCTION     1.21     2.10    11.16     0  00:43        2.10
  YSB1198              JUNCTION     0.22     1.60    12.39     0  00:44        1.18
  YSB1192              JUNCTION     0.44     1.90    12.17     0  00:44        1.70
  YSB6556              JUNCTION     1.04     1.80    10.97     0  00:43        1.80
  YSB1205              JUNCTION     1.19     1.65    12.35     0  00:39        1.65
  YSB1209              JUNCTION     1.17     1.65    12.22     0  00:47        1.65
  YSB1212              JUNCTION     1.08     1.60    12.13     0  00:48        1.60
  YSB1215              JUNCTION     1.09     1.69    12.04     0  00:55        1.69
  YSB1218              JUNCTION     1.10     1.75    11.94     0  00:48        1.75
  YSB1221              JUNCTION     1.02     1.58    11.55     0  01:19        1.58
  YSB1224              JUNCTION     0.89     1.33    11.18     0  01:08        1.33
  YSB1195              JUNCTION     0.39     1.90    12.28     0  00:44        1.59
  YSB1189              JUNCTION     0.54     1.80    11.96     0  00:44        1.80
  YSB1186              JUNCTION     0.60     1.95    11.82     0  00:44        1.74
  YSB1183              JUNCTION     0.75     2.05    11.64     0  00:44        1.88
  YSB1180              JUNCTION     0.78     1.95    11.46     0  00:44        1.83
  YSB1177              JUNCTION     1.04     2.05    11.24     0  00:44        2.02
  YSB1174              JUNCTION     1.09     1.95    11.06     0  00:49        1.95
  YSB1171              JUNCTION     1.25     1.95    10.85     0  00:43        1.95
  YS02006553           JUNCTION     1.15     2.01     8.30     0  00:46        1.99
  YS02006561           JUNCTION     0.41     1.22     7.88     0  00:46        0.92
  YS02006562           JUNCTION     0.92     1.85     8.36     0  00:46        1.80
  YS02006556           JUNCTION     1.12     2.03     8.34     0  00:46        1.98
  YS02006558           JUNCTION     1.16     2.08     8.35     0  00:46        2.04
  YS6132               JUNCTION     0.60     3.30    10.62     0  00:50        1.87
  YS6137               JUNCTION     0.33     2.86    10.65     0  00:50        1.61
  YS6189               JUNCTION     0.43     2.80    10.59     0  00:50        1.88
  YS6184               JUNCTION     0.44     2.65    10.54     0  00:50        2.12
  YS6179               JUNCTION     0.38     2.60    10.58     0  00:50        2.15
  YS6176               JUNCTION     0.29     2.40    10.60     0  00:50        2.00
  YS6171               JUNCTION     0.30     2.10    10.51     0  00:50        2.00
  YS6168               JUNCTION     0.32     2.00    10.51     0  00:50        2.00
  YS6164               JUNCTION     0.14     1.90    10.63     0  00:51        1.84
  YS6162               JUNCTION     0.19     2.10    10.75     0  00:51        1.89
  YS6187               JUNCTION     0.48     2.75    10.53     0  00:50        1.98
  YS6363               JUNCTION     0.37     2.93    10.72     0  00:54        1.48
  YS6360               JUNCTION     0.49     2.91    10.71     0  00:50        1.60
  YS6354               JUNCTION     0.49     2.60    10.75     0  00:50        2.00
  YS6351               JUNCTION     0.58     2.50    10.71     0  00:50        2.31
  YS6350               JUNCTION     0.64     2.50    10.72     0  00:50        2.50
  YS6348               JUNCTION     0.60     2.45    10.85     0  00:48        2.45
  YS6344               JUNCTION     0.41     2.30    10.89     0  00:59        2.26
  YS6375               JUNCTION     0.11     0.37     8.80     0  00:52        0.37
  YS6377               JUNCTION     0.17     0.44     8.80     0  00:52        0.44
  YS6381               JUNCTION     0.19     0.51     8.64     0  00:52        0.51
  YS6386               JUNCTION     0.22     0.59     8.57     0  00:52        0.59
  YS6390               JUNCTION     0.43     0.68     8.37     0  00:52        0.68
  YS6394               JUNCTION     0.12     0.28     8.20     0  00:52        0.28
  YS6404               JUNCTION     0.56     3.00    10.23     0  00:50        2.38
  YS6401               JUNCTION     0.18     0.42     7.64     0  00:51        0.41
  YS02004319           JUNCTION     0.35     1.18    20.80     0  00:44        1.18
  YS02004320           JUNCTION     0.00     0.00    22.64     0  01:01        0.00
  YS02004321           JUNCTION     0.00     0.00    26.80     0  01:01        0.00
  YS02004307           JUNCTION     0.17     0.52    11.05     0  00:51        0.52
  YS02004309           JUNCTION     0.83     1.55    13.07     0  00:35        1.55
  YS02004312           JUNCTION     0.55     1.48    14.91     0  00:42        1.48
  YS02004314           JUNCTION     0.41     1.28    16.99     0  00:44        1.28
  YS02004316           JUNCTION     0.41     1.36    19.13     0  00:44        1.36
  YS02001783           JUNCTION     0.64     1.46     7.60     0  00:46        1.25
  YS02001784           JUNCTION     0.61     1.23     7.30     0  00:46        1.13
  YS02001786           JUNCTION     0.50     0.96     6.99     0  00:46        0.89
  YS02001788           JUNCTION     0.36     0.62     6.60     0  00:47        0.62
  YS02001790           JUNCTION     0.42     0.72     6.36     0  01:00        0.71
  YS02001791           JUNCTION     0.26     0.44     5.91     0  00:54        0.43
  YS02001793           JUNCTION     0.13     0.28     5.11     0  00:47        0.27
  YS02003309           JUNCTION     0.57     1.21     9.77     0  00:31        1.05
  YS02003306           JUNCTION     0.68     1.16     9.60     0  00:31        1.16
  YS02003269           JUNCTION     0.14     0.17     7.76     0  00:46        0.17
  YS02003272           JUNCTION     0.37     0.90     8.63     0  00:31        0.58
  YS02003278           JUNCTION     0.73     1.21     9.13     0  00:53        1.21
  YS02003281           JUNCTION     0.81     1.39     9.47     0  00:45        1.39
  YS02003284           JUNCTION     0.89     1.40     9.41     0  00:45        1.40
  YS02003287           JUNCTION     0.84     1.27     9.34     0  00:31        1.27
  YS02003290           JUNCTION     0.70     1.11     9.40     0  00:53        1.10
  YS02003294           JUNCTION     0.85     1.24     9.42     0  00:31        1.24
  YS02003275           JUNCTION     0.55     0.96     8.87     0  00:31        0.91
  YS02003297           JUNCTION     0.83     1.22     9.43     0  00:32        1.22
  YS02003300           JUNCTION     0.77     1.15     9.42     0  00:31        1.15
  YS02003303           JUNCTION     0.75     1.14     9.46     0  00:31        1.14
  YSB1227              JUNCTION     0.02     0.13    11.03     0  00:51        0.13
  CaochengRainPumpOutfall1 OUTFALL      0.00     0.00     6.00     0  00:00        0.00
  JiankangRainPumpOutfall2 OUTFALL      0.00     0.00     6.00     0  00:00        0.00
  JiankangRainPumpOutfall1 OUTFALL      0.00     0.00     6.00     0  00:00        0.00
  CaochengRainPumpOutfall2 OUTFALL      0.00     0.00     6.00     0  00:00        0.00
  YS02005684           OUTFALL      0.04     0.09     8.50     0  00:51        0.09
  YS02005681           OUTFALL      0.06     0.16     9.38     0  00:51        0.16
  YS02005678           OUTFALL      0.07     0.18     8.71     0  00:51        0.18
  YS02005675           OUTFALL      0.06     0.16     8.70     0  00:52        0.16
  YS02005672           OUTFALL      0.04     0.11     8.45     0  00:51        0.11
  YS02005669           OUTFALL      0.05     0.14     8.86     0  00:52        0.14
  YS02005666           OUTFALL      0.05     0.14     8.82     0  00:52        0.14
  YS02005663           OUTFALL      0.06     0.15     8.89     0  00:52        0.15
  YS02005660           OUTFALL      0.07     0.17     8.98     0  00:52        0.17
  YS02005657           OUTFALL      0.00     0.00     8.74     0  00:00        0.00
  YS02005652           OUTFALL      0.08     0.22     8.84     0  00:51        0.22
  YS02005649           OUTFALL      0.09     0.23     8.93     0  00:50        0.23
  YS02005646           OUTFALL      0.08     0.22     8.22     0  00:50        0.22
  YS02005643           OUTFALL      0.09     0.30     8.86     0  00:50        0.30
  YS02005641           OUTFALL      0.07     0.18     8.88     0  00:52        0.18
  YS02005638           OUTFALL      0.07     0.18     8.84     0  00:52        0.18
  YS02005635           OUTFALL      0.06     0.16     8.82     0  00:52        0.16
  YS02005632           OUTFALL      0.05     0.14     8.70     0  00:52        0.14
  YS02005629           OUTFALL      0.05     0.12     8.60     0  00:51        0.12
  YS02005626           OUTFALL      0.04     0.11     8.63     0  00:51        0.11
  YS02005623           OUTFALL      0.05     0.12     8.60     0  00:51        0.12
  YS02005620           OUTFALL      0.06     0.16     8.95     0  00:51        0.16
  YS02005617           OUTFALL      0.05     0.13     8.97     0  00:51        0.13
  YSB1103              OUTFALL      0.29     0.60     8.60     0  00:49        0.60
  YSB1229              OUTFALL      0.06     0.19     8.99     0  00:51        0.18
  YS02005548           OUTFALL      0.06     0.17     9.17     0  00:51        0.17
  YS02005552           OUTFALL      0.07     0.17     8.79     0  00:52        0.17
  YS02005555           OUTFALL      0.07     0.16     8.89     0  00:53        0.16
  YS02005558           OUTFALL      0.08     0.16     8.86     0  00:53        0.16
  YS02005561           OUTFALL      0.09     0.18     8.86     0  00:53        0.18
  YS02005564           OUTFALL      0.08     0.16     8.63     0  00:53        0.16
  YS02005567           OUTFALL      0.10     0.21     8.74     0  00:53        0.21
  YS02005570           OUTFALL      0.12     0.30     9.02     0  00:52        0.30
  YS02005574           OUTFALL      0.14     0.30     9.14     0  00:51        0.30
  YS02005578           OUTFALL      0.12     0.30     9.08     0  00:51        0.30
  WS02005134           OUTFALL      0.00     0.00     8.74     0  00:00        0.00
  YS02005581           OUTFALL      0.14     0.30     9.10     0  00:50        0.30
  YS02005584           OUTFALL      0.16     0.30     9.26     0  00:47        0.30
  YS02005593           OUTFALL      0.25     0.28     9.00     0  01:01        0.28
  YS02005596           OUTFALL      0.17     0.30     8.84     0  00:43        0.30
  YS02005374           OUTFALL      0.15     0.30     8.54     0  00:45        0.30
  YS02005375           OUTFALL      0.15     0.30     8.69     0  00:45        0.30
  YS02005607           OUTFALL      0.14     0.30     7.53     0  00:46        0.30
  YS02005610           OUTFALL      0.10     0.27     8.88     0  00:52        0.27
  YS02005613           OUTFALL      0.16     0.30     8.58     0  00:48        0.30
  HS02003172           OUTFALL      0.19     0.49     5.94     0  00:52        0.49
  YS6395               OUTFALL      0.12     0.28     6.71     0  00:52        0.28
  YS6405               OUTFALL      0.18     0.41     3.86     0  00:52        0.41
  WSC                  OUTFALL      0.62     0.80     5.00     0  00:38        0.80
  JiankangQianchi      STORAGE      2.90     4.21     5.01     0  00:46        4.21
  CaochengTiaoxuchi    STORAGE      0.97     1.36     6.86     0  01:06        1.36
  XierchiQianchi       STORAGE      7.03     7.47     5.47     0  02:02        7.47
  
  
  *******************
  Node Inflow Summary
  *******************
  
  -------------------------------------------------------------------------------------------------
                                  Maximum  Maximum                  Lateral       Total        Flow
                                  Lateral    Total  Time of Max      Inflow      Inflow     Balance
                                   Inflow   Inflow   Occurrence      Volume      Volume       Error
  Node                 Type           LPS      LPS  days hr:min    10^6 ltr    10^6 ltr     Percent
  -------------------------------------------------------------------------------------------------
  WS02001211           JUNCTION      7.35   218.97     0  01:24       0.054        1.19       4.190
  WS02001212           JUNCTION      0.00   230.98     0  01:25           0        1.14       2.324
  WS02001213           JUNCTION      0.00   240.96     0  01:24           0        1.13       3.233
  WS02003069           JUNCTION      0.32  2519.81     0  00:51     0.00235        10.7       0.655
  WS02003072           JUNCTION      0.00  2519.88     0  00:51           0        10.6       0.563
  WS02003073           JUNCTION      1.82  3088.02     0  00:51      0.0134          14       0.273
  WS02003076           JUNCTION      0.00  3087.94     0  00:51           0          14       0.297
  WS02003060           JUNCTION     16.53  2519.49     0  00:51       0.121        10.7       0.530
  WS02003066           JUNCTION      0.00  2306.25     0  00:51           0        9.58       0.105
  WS02003059           JUNCTION      0.00   247.48     0  01:24           0        1.13       5.089
  WS02003115           JUNCTION      0.00   477.06     0  01:02           0        1.12       0.449
  WS02003116           JUNCTION      0.00   273.20     0  00:23           0        1.12       0.720
  WS02003118           JUNCTION      0.12   225.66     0  00:31    3.82e-06        1.12       1.338
  WS02003215           JUNCTION      0.18  2195.31     0  00:52    2.19e-05        2.92       0.931
  WS02003110           JUNCTION      0.18   488.63     0  00:52     0.00132       0.631       1.187
  WS02003111           JUNCTION      1.49   967.04     0  00:52      0.0107        1.67       0.428
  WS02005155           JUNCTION      0.38   488.40     0  00:52      0.0028        0.63       1.547
  WS02005154           JUNCTION    488.05   488.05     0  00:52       0.626       0.628       0.940
  WS02005193           JUNCTION      0.00   182.20     0  00:27           0      0.0153     140.767
  WS02005196           JUNCTION      0.00   136.62     0  00:27           0     0.00563     545.385
  WS02003067           JUNCTION      0.00  1872.48     0  00:50           0        7.56       0.195
  WS02004401           JUNCTION      0.00  1108.66     0  01:35           0         5.9       0.534
  WS02004402           JUNCTION      0.00  1108.82     0  01:35           0        5.88       0.475
  WS02004403           JUNCTION      0.00  1108.84     0  01:35           0        5.86       0.411
  WS02004404           JUNCTION      0.16  1109.11     0  01:35     0.00119        5.84       0.287
  WS02004406           JUNCTION      0.00  1109.30     0  01:35           0        5.82       0.703
  WS02004409           JUNCTION      0.00  1822.69     0  00:49           0        8.33       0.421
  WS02004410           JUNCTION      0.00  1872.47     0  00:50           0        8.38       0.425
  WS02004411           JUNCTION      0.00  1872.46     0  00:50           0        7.67       0.448
  WS02004412           JUNCTION      0.00  1872.49     0  00:50           0        7.63       0.446
  WS02004413           JUNCTION      0.00  1872.47     0  00:50           0         7.6       0.575
  WS02004405           JUNCTION      0.19  1109.41     0  01:35    0.000454        5.84       0.414
  WS02006109           JUNCTION      1.95  1308.01     0  00:00     0.00967        6.76       0.337
  WS02006110           JUNCTION      0.34  1108.16     0  01:35    0.000264        6.04      -0.323
  WS02006111           JUNCTION      0.04  1176.04     0  00:00    7.98e-06        6.03      -0.293
  WS02006112           JUNCTION      0.48  2307.30     0  00:00     2.7e-05        6.05       0.272
  WS02006113           JUNCTION      0.03  1108.27     0  01:35    5.07e-06        6.02      -0.352
  WS02006115           JUNCTION      0.00  1366.62     0  00:00           0        5.95       0.554
  WS02006116           JUNCTION      0.37  1108.74     0  01:35     0.00045        5.92       0.459
  WS02006230           JUNCTION     10.38  1026.95     0  00:49      0.0755        3.56       0.469
  WS02006231           JUNCTION      0.55   453.55     0  00:47     0.00149        2.08       0.774
  WS02006232           JUNCTION      0.26   453.64     0  00:47    0.000154         2.1       0.859
  WS02006234           JUNCTION      0.12   453.46     0  00:47    3.53e-06        2.11       0.583
  WS02006235           JUNCTION      0.27   415.14     0  01:00    0.000523        2.17       0.505
  WS02006238           JUNCTION      0.00   415.37     0  01:15           0        2.17       0.333
  WS02006240           JUNCTION      0.00   415.03     0  01:00           0         2.2       0.753
  WS02006242           JUNCTION      0.41   415.09     0  01:00    0.000216        2.22       0.887
  WS02006243           JUNCTION      0.71   283.36     0  00:24     0.00153        1.65       0.983
  WS02006245           JUNCTION      0.00   289.79     0  00:24           0        1.67       0.803
  WS02006247           JUNCTION      0.00   301.83     0  00:25           0        1.68       0.715
  WS02006248           JUNCTION      0.00   344.22     0  00:35           0        2.04       0.545
  WS02006249           JUNCTION      0.00  1386.40     0  00:52           0        5.88       0.288
  WS02006239           JUNCTION      0.00   415.19     0  01:00           0        2.18       0.585
  WS02006251           JUNCTION      0.08  1738.22     0  00:52    0.000566        6.17       0.299
  WS02006252           JUNCTION      0.00   751.99     0  00:52           0        2.46       0.015
  WS02006253           JUNCTION     65.83  1738.18     0  00:51      0.0837        4.62       0.447
  WS02006256           JUNCTION      0.00   300.00     0  00:31           0        1.64       0.061
  WS02004138           JUNCTION      0.00   190.00     0  00:29           0        1.17       0.240
  WS02004139           JUNCTION      0.32   190.32     0  00:33     0.00236        1.17       3.481
  WS02004407           JUNCTION      0.08  1823.02     0  00:49    8.22e-05        8.38       0.322
  WS02006228           JUNCTION      1.24  1288.98     0  00:49     0.00102        6.74       0.225
  WS02006229           JUNCTION      0.98  2306.01     0  00:49    0.000849        10.1       0.265
  WS02006280           JUNCTION      0.25  2305.47     0  00:49    0.000392          10       0.027
  WS02006284           JUNCTION      0.18  2305.31     0  00:49    0.000749          10       0.158
  WS02006287           JUNCTION      0.21  2305.68     0  00:49    0.000106          10       0.103
  WS02003091           JUNCTION      0.48  1200.35     0  00:00     0.00106        3.57      -1.103
  WS02003203           JUNCTION      0.33  2264.56     0  00:00     0.00014        5.67       0.182
  WS6145               JUNCTION      0.27   231.48     0  00:49    0.000375        0.09       0.382
  WS6147               JUNCTION      0.00   231.64     0  00:49           0       0.079       0.241
  WS6150               JUNCTION      0.16   231.87     0  00:49    0.000435      0.0682       0.512
  WS6152               JUNCTION      0.58   238.99     0  00:49     0.00424      0.0572       0.705
  WS6155               JUNCTION      0.18   236.98     0  00:49    4.56e-05      0.0423       0.478
  WS6156               JUNCTION      0.67   238.84     0  00:49     0.00383      0.0312       0.375
  WS6136               JUNCTION      0.22   725.34     0  00:49    5.46e-05         1.5       0.050
  WS6140               JUNCTION      0.20   231.61     0  00:49    0.000125        0.11       0.126
  WS6142               JUNCTION      0.20   231.43     0  00:49    0.000154         0.1       0.219
  WS6325               JUNCTION      0.21   132.54     0  00:48    0.000189      0.0885       1.894
  WS6327               JUNCTION      0.16   131.97     0  00:48    0.000485      0.0787       0.140
  WS6329               JUNCTION      0.55   131.83     0  00:48       0.002      0.0681       0.206
  WS6332               JUNCTION      0.39   131.64     0  00:48    0.000801      0.0553       0.182
  WS6158               JUNCTION      1.85   254.70     0  00:50       0.012      0.0158      -1.274
  WS6335               JUNCTION      0.72   133.05     0  00:48     0.00369      0.0433       0.354
  WS6338               JUNCTION      0.43   133.76     0  00:48     0.00115      0.0284       0.106
  WS6340               JUNCTION      0.29   134.09     0  00:48    0.000257      0.0156       0.360
  WS6342               JUNCTION      0.67   141.44     0  00:48     0.00319     0.00631      -0.704
  WS6135               JUNCTION      0.10   725.26     0  00:49    2.48e-05         1.6       0.433
  WS6396               JUNCTION      0.00   547.33     0  00:58           0         1.5       0.178
  WS6399               JUNCTION      0.00   547.34     0  00:58           0         1.5       0.066
  WS02003082           JUNCTION      0.48   590.32     0  00:40     0.00143        3.53       0.514
  WS02003077           JUNCTION      0.60   590.94     0  00:40     0.00441        3.48       0.211
  WS02003080           JUNCTION      0.00   590.28     0  00:40           0        3.49       0.432
  WS02003083           JUNCTION      0.00   590.24     0  00:40           0        3.53       0.254
  WS02003084           JUNCTION      0.04   590.25     0  00:40    0.000323        3.54       0.267
  WS02003085           JUNCTION      0.00   590.17     0  00:40           0        3.55       0.178
  WS02003086           JUNCTION      0.49   655.05     0  00:01     0.00361        3.56       0.413
  WS02003087           JUNCTION      0.00  1086.59     0  00:00           0        3.57       0.296
  WS02003088           JUNCTION      0.55  2146.84     0  00:00     0.00155         3.6       0.388
  WS02003089           JUNCTION      0.25  1590.77     0  00:00    0.000332        3.59      -0.260
  WS02003090           JUNCTION      0.43  1113.92     0  00:00    0.000547        3.57      -0.667
  WS02003081           JUNCTION      0.06   590.34     0  00:40    9.64e-06        3.51       0.402
  WS02003122           JUNCTION      0.00   225.90     0  00:31           0         1.1       1.354
  WS02003187           JUNCTION    622.77   799.80     0  00:52        0.85        1.91       0.675
  WS02003188           JUNCTION      0.48   403.48     0  00:59     0.00114        1.68       0.740
  WS02003190           JUNCTION      0.00   608.63     0  00:59           0        2.62       0.517
  WS02003193           JUNCTION   1082.74  1346.39     0  00:52        1.47        2.56       0.685
  WS02003195           JUNCTION      0.31   307.10     0  00:01    0.000834        1.15       1.306
[...]
  HS02004043HS02004046        0.15      0.15      0.21      0.06         0.06
  HS02004041HS02004043        0.04      0.04      0.15      0.01         0.01
  HS02004038HS02004041        0.01      0.01      0.04      0.01         0.01
  HS02004028HS02004027        0.01      0.18      0.01      0.20         0.01
  HS02003143HS02003065        0.64      0.64      0.86      0.01         0.01
  HS02004842HS02004848        0.63      0.63      0.86      0.01         0.01
  HS02004837HS02004842        0.67      0.67      0.86      0.01         0.01
  HS02004830HS02004837        0.67      0.67      0.73      0.01         0.01
  HS02004824HS02004830        0.73      0.73      0.77      0.01         0.01
  HS02004817HS02004824        0.77      0.77      1.59      0.01         0.01
  HS02004770HS02004777        0.78      0.78      0.79      0.01         0.01
  HS02004799HS02004480        0.95      0.95      1.05      1.06         0.01
  HS02004792HS02004799        0.89      0.89      1.05      0.01         0.01
  HS02004788HS02004792        0.72      0.72      0.89      0.01         0.01
  HS02004785HS02004788        0.72      0.74      0.72      1.48         0.58
  HS02004777HS02004785        0.74      0.74      0.79      0.01         0.01
  HS02004480HS02004478        0.88      0.95      0.88      1.72         0.88
  HS02004479HS02004480        0.96      0.96      1.00      0.01         0.01
  HS02003013HS02003010        0.36      0.36      0.40      0.23         0.23
  HS02003010HS02003007        0.34      0.35      0.36      0.39         0.34
  HS02003007HS02003004        0.36      0.36      0.43      0.20         0.20
  HS02003004HS02003001        0.01      0.43      0.01      1.07         0.01
  HS02003065HS02003056        0.85      0.85      1.01      0.01         0.01
  HS02003042HS02003053        0.30      0.30      0.80      0.01         0.01
  HS02003028HS02003021        0.23      0.23      0.30      0.01         0.01
  HS02003021HS02003018        0.33      0.33      0.34      0.11         0.12
  HS02003018HS02003017        0.35      0.35      0.35      0.06         0.05
  HS02003017HS02003013        0.35      0.35      0.36      0.29         0.27
  HS02004862HS02004870        0.69      0.69      0.72      0.30         0.29
  HS02004848HS02004852        0.63      0.63      0.66      0.03         0.01
  HS02004856HS02004862        0.64      0.64      0.69      0.01         0.01
  HS02004852HS02004856        0.66      0.66      0.69      0.02         0.01
  HS02004024HS02004022        0.01      0.01      0.22      0.01         0.01
  HS02004022HS02004021        0.22      0.22      0.33      0.01         0.01
  HS02004021HS02004019        0.33      0.33      0.48      0.26         0.26
  HS02004019HS02003162        0.01      0.48      0.01      0.52         0.01
  HS02004052HS02004053        0.18      0.19      0.18      0.20         0.18
  HS02003122HS02003125        1.52      1.52      1.52      0.17         0.20
  HS02003119HS02003122        1.50      1.50      1.52      0.01         0.01
  HS02003116HS02003119        1.21      1.21      1.50      0.01         0.01
  HS02003111HS02003116        0.01      0.01      1.29      0.01         0.01
  HS02004018HS02004019        0.33      0.33      0.48      0.01         0.01
  HS02003056HS02003136        0.87      0.87      1.54      0.01         0.01
  HS02004017HS02004018        0.32      0.32      0.33      0.01         0.01
  HS02004013HS02004017        0.13      0.13      0.32      0.14         0.12
  HS02004010HS02004013        0.01      0.01      0.13      0.01         0.01
  HS02004802HS02004478        0.90      0.90      0.98      0.24         0.01
  HS02004478WS02006287        0.75      0.75      0.95      0.01         0.01
  HS02003079HS02003084        0.01      0.01      0.01      0.01         0.01
  HS02003148HS02003145        0.01      0.01      0.15      0.02         0.01
  HS02003145HS02003143        0.15      0.15      0.62      0.14         0.12
  HS02003136WS02003203        1.55      1.55      1.67      0.01         0.01
  HS02003084HS02003088        0.02      0.02      0.05      0.01         0.01
  HS02003108HS02003111        0.16      0.16      0.39      0.01         0.01
  HS02003100HS02003108        0.08      0.08      0.16      0.01         0.01
  HS02003088HS02003100        0.06      0.06      0.08      0.01         0.01
  HS02004817HS02004807        0.94      0.94      1.59      0.01         0.01
  HS02004807HS02004802        0.94      0.94      0.96      0.40         0.40
  HS02003053HS02003056        0.80      0.80      1.01      0.01         0.01
  HS02003039HS02003042        0.37      0.37      0.41      0.23         0.01
  HS02003036HS02003039        0.19      0.19      0.23      0.01         0.01
  YS02001759YS02001757        0.13      0.13      0.13      0.18         0.12
  YS02001762YS02001759        0.13      0.13      0.13      0.16         0.12
  YS02001765YS02001762        0.13      0.13      0.13      0.09         0.08
  YS02001770YS02001767        0.13      0.15      0.13      0.65         0.13
  YS02001774YS02001770        0.14      0.14      0.17      0.01         0.01
  YS02001779YS02001774        0.11      0.11      0.17      0.01         0.01
  YS02001767YS02001765        0.13      0.13      0.13      0.19         0.12
  YS02006561YS02001783        0.44      0.44      0.64      0.01         0.01
  YS02001783YS02001784        0.61      0.64      0.61      0.81         0.61
  YS02001784YS02001785        0.50      0.61      0.50      1.11         0.50
  YS02001790YS02001791        0.01      0.01      0.01      0.60         0.01
  YS02001910YS02001907        0.67      0.67      0.88      0.05         0.04
  YS02001786YS02001788        0.01      0.50      0.01      0.95         0.01
  YS02001915YS02001910        0.58      0.58      0.67      0.01         0.01
  YS02001918YS02001915        0.49      0.49      0.58      0.01         0.01
  YS02001923YS02001920        0.42      0.42      0.51      0.01         0.01
  YS02001926YS02001923        0.18      0.18      0.20      0.01         0.01
  YS02001929YS02001926        0.07      0.07      0.20      0.01         0.01
  YS02001932YS02001929        0.02      0.02      0.07      0.01         0.01
  YS02001935YS02001932        0.01      0.01      0.01      0.01         0.01
  YS02001920YS02001918        0.49      0.49      0.51      0.01         0.01
  YS02003290YS02003287        1.33      1.33      1.63      0.01         0.01
  YS02003294YS02003290        1.35      1.35      1.67      0.01         0.01
  YS02003297YS02003294        1.63      1.63      1.64      0.06         0.24
  YS02003275YS02003272        1.10      1.23      1.10      1.56         1.10
  YS02003300YS02003297        1.40      1.40      1.57      0.01         0.01
  YS02003303YS02003300        1.30      1.30      1.48      0.01         0.01
  YS02005550YS02005551        0.01      0.11      0.01      0.16         0.01
  YS02005568YS02005569        0.01      0.25      0.01      0.36         0.01
  YS02005582YS02005583        0.42      0.68      0.42      0.92         0.42
  YS02003272YS02003269        0.01      1.17      0.01      1.56         0.01
  YS02003278YS02003275        1.29      1.65      1.29      1.76         1.29
  YS02003281YS02003278        1.51      1.51      1.64      1.28         1.28
  YS02003284YS02003281        1.51      1.51      1.64      0.79         0.30
  YS02003287YS02003284        1.60      1.60      1.66      0.01         0.01
  YS02003306YS02003303        1.25      1.25      1.40      0.36         0.36
  YS02003309YS02003306        1.14      1.14      1.25      0.01         0.01
  YS02005600YS02005375        0.28      0.28      0.30      0.30         0.28
  YS02005384YS02005593        0.01      1.52      0.01      1.58         0.01
  YS02005595YS02005596        0.41      0.42      0.41      0.45         0.41
  YS02005609YS02005610        0.01      0.03      0.01      0.06         0.01
  YS02005612YS02005613        0.20      0.20      1.27      0.43         0.01
  YS02005549YS02005547        0.01      0.03      0.01      0.05         0.01
  YS02005553YS02005554        0.01      0.17      0.01      0.30         0.01
  YS02005556YS02005557        0.01      0.16      0.01      0.36         0.01
  YS02005559YS02005560        0.01      0.01      0.01      0.10         0.01
  YS02005562YS02005563        0.01      0.01      0.01      0.31         0.01
  YS02005565YS02005566        0.01      0.01      0.01      0.11         0.01
  YS02005569YS02005570        0.01      0.01      0.04      0.04         0.01
  YS02005571YS02005572        0.18      0.37      0.18      0.52         0.18
  YS02005572YS02005574        0.12      0.18      0.12      0.21         0.12
  YS02005576YS02005577        0.11      0.19      0.11      0.24         0.11
  YS02005577YS02005578        0.10      0.11      0.12      0.14         0.10
  YS02005579YS02005580        0.27      0.45      0.27      0.63         0.27
  YS02005580YS02005581        0.25      0.27      0.25      0.29         0.25
  YS02005583YS02005584        0.42      0.42      0.44      0.44         0.42
  YS02006553YS02006556        0.78      0.78      0.90      0.01         0.01
  YS02006556YS02006558        0.84      0.84      0.94      0.01         0.01
  YSB6556YSB1171              1.09      1.09      1.66      0.01         0.01
  YSB1202YSB1205              1.39      1.39      1.41      0.01         0.01
  YSB1205YSB1209              1.41      1.41      1.41      0.80         0.74
  YSB1209YSB1212              1.38      1.41      1.38      1.52         1.38
  YSB1212YSB1215              1.38      1.38      1.38      0.58         0.57
  YSB1215YSB1218              1.38      1.38      1.38      0.63         0.62
  YSB1218YSB1221              1.38      1.38      1.39      1.35         1.35
  YSB1221YSB1224              1.39      1.39      1.39      1.38         1.38
  YSB1224YSB1105              1.14      1.43      1.14      1.53         1.14
  YSB1189YSB1186              0.65      0.65      0.77      0.17         0.17
  YS02001907YS02006553        1.13      1.13      1.23      0.01         0.01
  YS02006562YS02006558        0.64      0.64      0.94      0.01         0.01
  YS02006558YS02006561        0.53      0.76      0.53      1.06         0.53
  YS6184YS6187                0.17      0.17      0.18      0.11         0.11
  YS6360YS6363                0.15      0.19      0.15      0.79         0.15
  YS6354YS6360                0.23      0.23      0.24      0.25         0.22
  YS6351YS6354                0.23      0.26      0.23      0.47         0.23
  YS6350YS6351                0.26      0.29      0.26      0.82         0.26
  YS6348YS6350                0.28      0.28      0.29      0.26         0.24
  YS6344YS6348                0.28      0.28      0.35      0.01         0.01
  YS6363YS6132                0.15      0.15      0.30      0.01         0.01
  YS6137YS6132                0.21      0.21      0.40      0.01         0.01
  YS6189YS6137                0.21      0.21      0.23      1.58         0.01
  YS6187YS6189                0.17      0.17      0.18      0.33         0.01
  YS6179YS6184                0.15      0.16      0.17      0.01         0.01
  YS6176YS6179                0.10      0.10      0.16      0.01         0.01
  YS6171YS6176                0.12      0.12      0.16      0.01         0.02
  YS6168YS6171                0.12      0.12      0.12      0.09         0.09
  YS6164YS6168                0.08      0.08      0.12      0.01         0.01
  YS6162YS6164                0.11      0.11      0.12      0.01         0.01
  YS6132YS6404                0.02      0.19      0.02      0.34         0.02
  YSB1106YSB1105              0.01      0.19      0.01      0.24         0.01
  YSB1109YSB1106              0.19      0.25      0.19      0.39         0.19
  YSB1112YSB1109              0.25      0.25      0.25      0.28         0.25
  YSB1115YSB1112              0.23      0.23      0.25      0.11         0.12
  YSB1118YSB1115              0.26      0.27      0.26      0.29         0.26
  YSB1121YSB1118              0.27      0.30      0.27      0.40         0.27
  YSB1124YSB1121              0.26      0.26      0.30      0.01         0.01
  YSB1105YSB1103              0.01      0.01      0.17      0.17         0.01
  YS02001748YS02001751        0.01      0.01      0.01      0.01         0.01
  YS02001751YS02001754        0.01      0.01      0.05      0.01         0.01
  YS02001754YS02001757        0.06      0.06      0.13      0.01         0.01
  YS02001882YS02001884        0.58      0.58      0.59      0.01         0.01
  YS02001884YS02001887        0.62      0.62      0.63      0.01         0.01
  YS02001890YS02001895        0.57      0.57      0.68      0.01         0.01
  YS02001895YS02001898        0.56      0.56      0.57      0.01         0.01
  YS02001898YS02001901        0.58      0.58      0.61      0.01         0.01
  YS02001901YS02001904        0.60      0.60      0.61      0.01         0.01
  YS02001904YS02001907        0.60      0.60      0.91      0.01         0.01
  YS02001887YS02001890        0.64      0.64      0.66      0.19         0.01
  YS02004309YS02004307        0.15      1.01      0.15      0.99         0.15
  YS02004319YS02004316        0.39      0.39      0.41      0.01         0.01
  YS02005670YS02005671        0.01      0.01      0.01      0.02         0.01
  YS02005673YS02005674        0.01      0.02      0.01      0.04         0.01
  YS02005376YS02005378        1.70      1.70      1.86      0.01         0.01
  YS02005378YS02005381        1.83      1.83      1.86      0.30         0.01
  YS02005381YS02005384        1.52      1.52      1.83      1.84         0.01
  YS02005598YS02005374        0.30      0.30      0.32      0.32         0.30
  YS02005602YS02005603        0.26      0.61      0.26      0.77         0.26
  YS02005603YS02005607        0.26      0.26      0.27      0.27         0.26
  YS02005618YS02005619        0.01      0.03      0.01      0.06         0.01
  YS02005621YS02005622        0.01      0.04      0.01      0.10         0.01
  YS02005624YS02005625        0.01      0.01      0.31      0.07         0.01
  YS02005630YS02005631        0.01      0.09      0.01      0.13         0.01
  YS02005633YS02005634        0.01      0.08      0.01      0.10         0.01
  YS02005636YS02005637        0.01      0.12      0.01      0.16         0.01
  YS02005639YS02005640        0.01      0.10      0.01      0.12         0.01
  YS02005642YS02005643        0.03      0.04      0.05      0.05         0.03
  YS02005627YS02005628        0.01      0.08      0.01      0.32         0.01
  YS02005644YS02005645        0.01      0.15      0.01      0.18         0.01
  YS02005650YS02005651        0.01      0.19      0.01      0.29         0.01
  YS02005653YS02005654        0.17      0.17      0.18      0.17         0.16
  YS02005654YS02005655        0.01      0.18      0.01      0.27         0.01
  YS02005658YS02005659        0.01      0.11      0.01      0.15         0.01
  YS02005661YS02005662        0.01      0.17      0.01      0.29         0.01
  YS02005664YS02005665        0.01      0.17      0.01      0.59         0.01
  YS02005667YS02005668        0.01      0.01      0.56      0.15         0.01
  YS02005647YS02005648        0.01      0.27      0.01      0.41         0.01
  YS02004312YS02004309        0.67      0.67      1.01      0.01         0.01
  YS02004314YS02004312        0.44      0.44      0.67      0.01         0.01
  YS02004316YS02004314        0.41      0.41      0.44      0.35         0.35
  YS02004320YS02004319        0.01      0.01      0.32      0.01         0.01
  YS6404YS6401                0.01      0.02      0.01      0.76         0.01
  YSB1132YSB1135              0.66      0.66      0.72      0.01         0.01
  YSB1135YSB1138              0.72      0.72      0.75      0.01         0.01
  YSB1138YSB1141              0.75      0.75      0.85      0.47         0.47
  YSB1141YSB1145              0.82      0.82      0.85      0.45         0.43
  YSB1148YSB1151              0.94      0.94      1.21      0.01         0.01
  YSB1151YSB1154              1.05      1.05      1.40      0.01         0.01
  YSB1154YSB6556              1.09      1.09      1.40      0.47         0.01
  YSB1128YSB1132              0.63      0.63      0.66      0.01         0.01
  YSB1145YSB1148              0.85      0.85      0.94      0.01         0.01
  YSB1198YSB1195              0.28      0.28      0.59      0.01         0.01
  YSB1195YSB1192              0.59      0.59      0.62      0.01         0.01
  YSB1192YSB1189              0.62      0.62      0.65      0.01         0.01
  YSB1186YSB1183              0.71      0.71      0.84      0.01         0.01
  YSB1183YSB1180              0.84      0.84      0.88      0.21         0.22
  YSB1180YSB1177              0.88      0.88      1.26      0.01         0.01
  YSB1177YSB1174              1.26      1.26      1.54      0.22         0.23
  YSB1174YSB1171              1.20      1.20      1.61      0.16         0.16
  YSB1171HS02004479           0.93      0.93      1.36      0.01         0.01
  HS02003001HS02003166        0.01      0.01      0.05      0.01         0.01
  YS02004307HS02004052        0.01      0.01      0.19      0.01         0.01
  HS02004881HS02006253        0.78      0.78      1.57      0.01         0.01
  WS0200404049WS6136          0.17      0.17      0.26      0.01         0.01
  HS02003125WS02003215        1.52      1.52      1.55      0.01         0.01
  YS02001793JiankangQianchi        0.01      0.01      2.03      0.01         0.01
  YS02001757CaochengTiaoxuchi        0.12      0.13      0.79      0.10         0.09
  WS02004041WS6409            1.16      1.16      1.27      1.24         1.16
  WSF200WS02003060            0.26      0.26      0.53      0.01         0.01
  HS02004053WS02004407        0.18      0.18      1.20      0.01         0.01
  HS02003036HS02003028        0.19      0.19      0.28      0.01         0.01
  
  
  ***************
  Pumping Summary
  ***************
  
  ---------------------------------------------------------------------------------------------------------
                                                  Min       Avg       Max     Total     Power    % Time Off
                        Percent   Number of      Flow      Flow      Flow    Volume     Usage    Pump Curve
  Pump                 Utilized   Start-Ups       LPS       LPS       LPS  10^6 ltr     Kw-hr    Low   High
  ---------------------------------------------------------------------------------------------------------
  CaochengSewagePump1     92.11           1      0.00    200.00    200.00     1.354     10.33    0.0    0.0
  CaochengSewagePump2     58.06           1      0.00    200.00    200.00     0.853      6.77    0.0    0.0
  CaochengRainPump1       54.80           1      0.00    683.00    683.00     2.751      4.34    0.0   35.8
  CaochengRainPump2        0.00           0      0.00      0.00      0.00     0.000      0.00    0.0    0.0
  JiankangSewagePump      74.15           1      0.00    300.00    300.00     1.635     25.18    0.0    0.0
  JiankangRainPump1       36.03           5      0.00   1000.00   1000.00     2.648     17.41    0.0    0.0
  JiankangRainPump2        0.00           0      0.00      0.00      0.00     0.000      0.00    0.0    0.0
  XierchiSewagePump1      91.82           1      0.00     95.00     95.00     0.641      3.96    0.0    0.0
  XierchiSewagePump2      76.28           1      0.00     95.00     95.00     0.533      3.12    0.0    0.0
  XierchiSewagePump3       0.00           0      0.00      0.00      0.00     0.000      0.00    0.0    0.0
  XierchiSewagePump4       0.00           0      0.00      0.00      0.00     0.000      0.00    0.0    0.0
  

  Analysis begun on:  Wed Oct 19 16:10:41 2022
  Analysis ended on:  Wed Oct 19 16:45:16 2022
  Total elapsed time: 00:34:35