
  EPA STORM WATER MANAGEMENT MODEL - VERSION 5.1 (Build 5.3.0.dev0)
  --------------------------------------------------------------

  WARNING 04: minimum elevation drop used for Conduit WS02004404WS02004405
  WARNING 03: negative offset ignored for Link YS02001904YS02001907
  
  *********************************************************
  NOTE: The summary statistics displayed in this report are
  based on results found at every computational time step,  
  not just on results from each reporting time step.
  *********************************************************
  
  ****************
  Analysis Options
  ****************
  Flow Units ............... LPS
  Process Models:
    Rainfall/Runoff ........ YES
    RDII ................... NO
    Snowmelt ............... NO
    Groundwater ............ NO
    Flow Routing ........... YES
    Ponding Allowed ........ NO
    Water Quality .......... NO
  Infiltration Method ...... HORTON
  Flow Routing Method ...... DYNWAVE
  Surcharge Method ......... EXTRAN
  Starting Date ............ 03/31/2017 00:00:00
  Ending Date .............. 03/31/2017 03:00:00
  Antecedent Dry Days ...... 8.0
  Report Time Step ......... 00:00:30
  Wet Time Step ............ 00:01:00
  Dry Time Step ............ 00:01:00
  Routing Time Step ........ 30.00 sec
  Variable Time Step ....... YES
  Maximum Trials ........... 8
  Number of Threads ........ 6
  Head Tolerance ........... 0.001500 m
  
  
  **************************        Volume         Depth
  Runoff Quantity Continuity     hectare-m            mm
  **************************     ---------       -------
  Initial LID Storage ......         0.094         0.800
  Total Precipitation ......        11.461        97.262
  Evaporation Loss .........         0.000         0.000
  Infiltration Loss ........         0.613         5.200
  Surface Runoff ...........         7.748        65.750
  LID Drainage .............         0.628         5.326
  Final Storage ............         2.587        21.955
  Continuity Error (%) .....        -0.173
  
  
  **************************        Volume        Volume
  Flow Routing Continuity        hectare-m      10^6 ltr
  **************************     ---------     ---------
  Dry Weather Inflow .......         0.171         1.706
  Wet Weather Inflow .......         8.342        83.422
  Groundwater Inflow .......         0.000         0.000
  RDII Inflow ..............         0.000         0.000
  External Inflow ..........         0.033         0.326
  External Outflow .........         4.680        46.804
  Flooding Loss ............         3.647        36.472
  Evaporation Loss .........         0.000         0.000
  Exfiltration Loss ........         0.000         0.000
  Initial Stored Volume ....         0.303         3.031
  Final Stored Volume ......         0.551         5.512
  Continuity Error (%) .....        -0.342
  
  
  *************************
  Highest Continuity Errors
  *************************
  Node WS02005193 (57.16%)
  Node YS02001884 (27.01%)
  Node YS02001774 (12.54%)
  Node YS02004320 (7.18%)
  Node HS02003116 (6.43%)
  
  
  ***************************
  Time-Step Critical Elements
  ***************************
  Link YS02005655YS02005657 (44.47%)
  Link WS02006252WS02006251 (22.63%)
  Link WS02004041WS6409 (14.76%)
  Link WS02006280WS02006229 (2.25%)
  Link WS02003073WS02003076 (1.85%)
  
  
  ********************************
  Highest Flow Instability Indexes
  ********************************
  Link WS02006238WS02006235 (69)
  Link WS02003215WS02003116 (63)
  Link WS02004404WS02004405 (61)
  Link WS02006239WS02006238 (60)
  Link WS02003203WS02003091 (60)
  
  
  *************************
  Routing Time Step Summary
  *************************
  Minimum Time Step           :     0.50 sec
  Average Time Step           :     0.95 sec
  Maximum Time Step           :    30.00 sec
  Percent in Steady State     :    -0.00
  Average Iterations per Step :     6.16
  Percent Not Converging      :    37.87
  
  
  ***************************
  Subcatchment Runoff Summary
  ***************************
  
  ------------------------------------------------------------------------------------------------------------------------------
                            Total      Total      Total      Total     Imperv       Perv      Total       Total     Peak  Runoff
                           Precip      Runon       Evap      Infil     Runoff     Runoff     Runoff      Runoff   Runoff   Coeff
  Subcatchment                 mm         mm         mm         mm         mm         mm         mm    10^6 ltr      LPS
  ------------------------------------------------------------------------------------------------------------------------------
  sub0                      97.26       0.00       0.00       0.74      88.10       5.76      93.86        0.08    59.55   0.965
  sub1                      97.26       0.00       0.00       5.63      50.13       5.35      64.36        0.43   275.87   0.662
  sub2                      97.26       0.00       0.00       5.93      42.99      19.65      68.19        0.64   344.15   0.701
  sub3                      97.26       0.00       0.00       5.21      45.04      19.51      68.48        1.54   776.35   0.704
  sub4                      97.26       0.00       0.00       2.94      54.80       5.81      64.50        1.35   759.50   0.663
  sub5                      97.26       0.00       0.00       6.24      53.08       3.48      66.98        0.76   481.43   0.689
  sub6                      97.26       0.00       0.00       5.22      54.50       3.57      66.64        1.72  1053.22   0.685
  sub7                      97.26       0.00       0.00       2.29      63.91       5.48      72.24        0.24   178.10   0.743
  sub8                      97.26       0.00       0.00       1.46      62.81       5.38      69.58        0.44   322.62   0.715
  sub9                      97.26       0.00       0.00       1.81      63.12       5.41      70.52        0.34   242.80   0.725
  sub10                     97.26       0.00       0.00       4.28      57.69       4.36      68.74        0.76   506.12   0.707
  sub11                     97.26       0.00       0.00       3.40      59.09       4.46      68.63        0.80   563.32   0.706
  sub12                     97.26       0.00       0.00       6.48      51.20       6.60      67.93        0.59   414.67   0.698
  sub13                     97.26       0.00       0.00       4.29      59.22      24.76      85.54        1.02   634.40   0.879
  sub14                     97.26       0.00       0.00       3.23      58.61       5.02      68.28        0.65   452.81   0.702
  sub15                     97.26       0.00       0.00       6.10      47.52      16.83      71.22        1.22   754.05   0.732
  sub16                     97.26       0.00       0.00       5.81      48.82      20.09      74.55        0.78   526.67   0.767
  sub17                     97.26       0.00       0.00       7.82      44.36      17.49      71.75        0.62   397.12   0.738
  sub18                     97.26       0.00       0.00       2.73      60.53       5.19      69.43        0.55   408.57   0.714
  sub19                     97.26       0.00       0.00       7.73      46.30      17.40      73.46        0.23   149.54   0.755
  sub20                     97.26       0.00       0.00       3.57      57.60       4.94      67.83        0.47   338.42   0.697
  sub21                     97.26       0.00       0.00       3.74      60.63       7.14      72.85        0.37   270.48   0.749
  sub22                     97.26       0.00       0.00       5.34      49.32      29.40      80.82        5.11  3001.86   0.831
  sub23                     97.26       0.00       0.00       5.21      45.42      21.87      71.31        3.40  2163.30   0.733
  sub24                     97.26       0.00       0.00       4.47      57.28       8.03      71.48        2.56  1837.09   0.735
  sub25                     97.26       0.00       0.00       5.20      54.37       3.55      66.47        0.86   651.44   0.683
  sub26                     97.26       0.00       0.00       6.85      47.74      12.93      70.00        1.00   754.03   0.720
  sub27                     97.26       0.00       0.00       4.02      55.98       4.80      66.90        0.97   659.78   0.688
  sub28                     97.26       0.00       0.00       3.94      55.25       4.17      65.55        1.03   698.88   0.674
  sub29                     97.26       0.00       0.00       5.34      51.45       3.89      64.04        1.03   624.15   0.658
  sub30                     97.26       0.00       0.00       4.36      55.91       4.22      67.01        1.51  1102.46   0.689
  sub31                     97.26       0.00       0.00       6.08      55.03       9.69      73.43        1.56  1125.97   0.755
  sub32                     97.26       0.00       0.00       5.05      54.23       4.09      66.48        1.32   920.90   0.683
  sub33                     97.26       0.00       0.00       4.52      56.37       7.27      70.09        1.28   939.58   0.721
  sub34                     97.26       0.00       0.00       7.14      37.96      31.41      74.66        1.67  1100.60   0.768
  sub35                     97.26       0.00       0.00       4.11      59.06       4.45      69.89        0.24   202.52   0.719
  sub36                     97.26       0.00       0.00       6.24      48.61      11.76      68.88        0.60   447.40   0.708
  sub37                     97.26       0.00       0.00       5.90      45.46      24.60      74.91        0.57   425.64   0.770
  sub38                     97.26       0.00       0.00       6.59      45.48      20.87      73.35        1.39  1066.17   0.754
  sub39                     97.26       0.00       0.00       4.75      53.43       4.03      65.09        0.69   541.00   0.669
  sub40                     97.26       0.00       0.00       3.38      58.33       4.40      67.80        0.79   639.32   0.697
  sub41                     97.26       0.00       0.00       3.95      55.80       9.15      69.94        1.34  1042.50   0.719
  sub42                     97.26       0.00       0.00       2.89      59.08       5.06      68.18        0.69   554.10   0.701
  sub43                     97.26       0.00       0.00       4.00      58.59      29.67      88.27        0.72   496.13   0.908
  sub44                     97.26       0.00       0.00       5.88      51.94       3.40      65.14        0.74   483.87   0.670
  sub45                     97.26       0.00       0.00       6.69      47.99       8.42      66.48        1.22   808.12   0.684
  sub46                     97.26       0.00       0.00       7.24      30.68      42.09      75.40        0.53   314.85   0.775
  sub47                     97.26       0.00       0.00       6.39      50.84       3.84      65.30        0.50   337.41   0.671
  sub48                     97.26       0.00       0.00       2.54      60.48       5.18      69.04        0.53   385.48   0.710
  sub49                     97.26       0.00       0.00       5.23      53.48       4.04      66.01        0.60   407.29   0.679
  sub50                     97.26       0.00       0.00       4.33      54.57       4.12      65.54        0.46   317.64   0.674
  sub51                     97.26       0.00       0.00       2.75      59.38       4.48      67.77        0.32   236.82   0.697
  sub52                     97.26       0.00       0.00       5.39      56.25       3.68      68.77        0.75   498.39   0.707
  sub53                     97.26       0.00       0.00       4.60      55.99       4.22      67.52        0.68   479.52   0.694
  sub54                     97.26       0.00       0.00       5.92      50.74       3.32      63.96        0.38   242.90   0.658
  sub55                     97.26       0.00       0.00       3.14      58.23       4.40      67.26        0.54   368.30   0.691
  sub56                     97.26       0.00       0.00       3.08      61.59      12.09      76.27        1.08   663.88   0.784
  sub57                     97.26       0.00       0.00       3.24      63.84      23.08      86.92        0.56   343.25   0.894
  sub58                     97.26       0.00       0.00       8.65      23.61      45.19      71.60        2.65  1141.84   0.736
  sub59                     97.26       0.00       0.00       9.18      19.81      42.08      65.11        1.49   559.62   0.669
  sub60                     97.26       0.00       0.00       3.36      57.11       6.72      68.32        0.90   642.93   0.702
  sub61                     97.26       0.00       0.00       5.21      52.18       9.16      68.58        1.26   876.35   0.705
  sub62                     97.26       0.00       0.00       4.27      54.50       4.12      65.36        1.79  1187.49   0.672
  sub67                     97.26       0.00       0.00       6.66      50.28       3.80      65.19        1.21   777.28   0.670
  sub68                     97.26       0.00       0.00       3.60      58.49       8.17      71.23        1.96  1351.51   0.732
  sub71                     97.26       0.00       0.00       3.06      55.84       4.22      64.58        1.69  1075.24   0.664
  sub72                     97.26       0.00       0.00       4.65      55.87       3.67      67.06        0.92   536.99   0.689
  sub73                     97.26       0.00       0.00       2.07      70.43      16.03      86.47        0.08    67.22   0.889
  sub74                     97.26       0.00       0.00       3.03      58.16      23.16      81.32        0.13   100.47   0.836
  sub75                     97.26       0.00       0.00       3.13      58.14      21.19      80.00        0.18   138.68   0.823
  sub76                     97.26       0.00       0.00       3.67      61.27      11.55      76.76        0.19   143.28   0.789
  sub77                     97.26       0.00       0.00       2.98      63.03      11.11      76.93        0.12    97.06   0.791
  sub78                     97.26       0.00       0.00       7.50      47.75       6.16      65.99        0.18   123.54   0.678
  sub79                     97.26       0.00       0.00       5.51      57.40      15.39      79.08        0.20   144.20   0.813
  sub80                     97.26       0.00       0.00       4.02      55.78      23.18      80.72        0.24   176.09   0.830
  sub81                     97.26       0.00       0.00       4.69      53.43      26.17      81.78        0.25   176.37   0.841
  sub82                     97.26       0.00       0.00       4.74      51.84      25.53      79.82        0.24   173.50   0.821
  sub83                     97.26       0.00       0.00       5.06      49.49      25.52      78.07        0.26   192.18   0.803
  sub84                     97.26       0.00       0.00       4.57      49.96      22.47      75.28        0.41   285.68   0.774
  sub85                     97.26       0.00       0.00       7.15      46.06      12.38      68.41        0.30   206.00   0.703
  sub86                     97.26       0.00       0.00       3.83      58.95      17.53      79.23        0.38   277.55   0.815
  sub87                     97.26       0.00       0.00       3.68      61.56      27.73      89.28        0.27   194.81   0.918
  sub88                     97.26       0.00       0.00       3.53      61.73      26.69      88.42        0.27   199.24   0.909
  sub89                     97.26       0.00       0.00       3.06      61.63      23.48      85.11        0.23   175.71   0.875
  sub90                     97.26       0.00       0.00       2.65      64.76      20.35      85.11        0.21   161.93   0.875
  sub91                     97.26       0.00       0.00       2.68      65.66      20.74      86.40        0.16   127.58   0.888
  sub92                     97.26       0.00       0.00       3.26      65.80      25.25      91.05        0.14   114.06   0.936
  sub93                     97.26       0.00       0.00       3.26      65.83      25.27      91.10        0.16   138.99   0.937
  sub94                     97.26       0.00       0.00       3.26      65.67      25.10      90.77        0.20   157.20   0.933
  sub95                     97.26       0.00       0.00       3.05      67.62      23.57      91.19        0.14   112.57   0.938
  sub96                     97.26       0.00       0.00       2.31      74.48      18.07      92.55        0.17   149.76   0.952
  sub97                     97.26       0.00       0.00       6.90      36.06      47.90      85.23        0.20   162.28   0.876
  sub98                     97.26       0.00       0.00       7.73      26.42      55.56      82.43        0.27   168.55   0.848
  sub99                     97.26       0.00       0.00       8.31      20.03      58.49      78.52        0.28   137.93   0.807
  sub100                    97.26       0.00       0.00       8.31      19.98      55.80      75.78        0.27   118.77   0.779
  sub101                    97.26       0.00       0.00       8.31      19.98      55.52      75.49        0.25   112.86   0.776
  sub102                    97.26       0.00       0.00       7.99      22.76      51.40      74.16        0.22    96.37   0.762
  sub103                    97.26       0.00       0.00       8.20      20.86      51.53      72.39        0.34   141.63   0.744
  sub104                    97.26       0.00       0.00       8.20      20.85      50.94      71.79        0.38   153.13   0.738
  sub105                    97.26       0.00       0.00       8.52      18.04      52.83      70.87        0.40   157.92   0.729
  sub106                    97.26       0.00       0.00       8.31      19.95      53.86      73.82        0.38   159.55   0.759
  sub107                    97.26       0.00       0.00       8.72      17.79      56.40      74.82        0.53   232.44   0.769
  sub108                    97.26       0.00       0.00       8.78      16.97      60.35      77.79        0.72   360.24   0.800
  sub109                    97.26       0.00       0.00       7.61      30.71      44.05      77.61        1.11   660.24   0.798
  sub110                    97.26       0.00       0.00       5.58      52.53       9.89      70.16        1.47  1047.38   0.721
  sub111                    97.26       0.00       0.00       5.78      50.19      14.99      72.07        0.62   439.06   0.741
  sub112                    97.26       0.00       0.00       4.49      55.34      12.58      73.06        0.58   423.96   0.751
  sub113                    97.26       0.00       0.00       2.32      59.33       8.32      69.90        0.48   369.71   0.719
  sub114                    97.26       0.00       0.00       2.29      59.80       7.71      69.85        0.46   354.42   0.718
  sub115                    97.26       0.00       0.00       3.39      58.24       6.86      69.62        0.51   381.83   0.716
  sub116                    97.26       0.00       0.00       6.57      47.01      25.90      78.47        0.15    95.66   0.807
  sub117                    97.26       0.00       0.00       6.97      43.99      25.45      75.89        0.35   232.81   0.780
  

  ***********************
  LID Performance Summary
  ***********************

  --------------------------------------------------------------------------------------------------------------------
                                         Total      Evap     Infil   Surface    Drain    Initial     Final  Continuity
                                        Inflow      Loss      Loss   Outflow   Outflow   Storage   Storage       Error
  Subcatchment      LID Control             mm        mm        mm        mm        mm        mm        mm           %
  --------------------------------------------------------------------------------------------------------------------
  sub1              GreenRoof            97.26      0.00      0.00      0.00      0.00      7.05    104.31       -0.00
  sub1              PermeablePavement     97.26      0.00     20.50      0.00     36.91      0.00     40.42       -0.59
  sub2              GreenRoof            97.26      0.00      0.00      0.00      0.00      7.05    104.31       -0.00
  sub2              PermeablePavement     97.26      0.00     20.50      0.00     36.91      0.00     40.42       -0.59
  sub3              GreenRoof            97.26      0.00      0.00      0.00      0.00      7.05    104.31       -0.00
  sub3              PermeablePavement     97.26      0.00     20.50      0.00     36.91      0.00     40.42       -0.59
  sub4              GreenRoof            97.26      0.00      0.00      0.00      0.00      7.05    104.31       -0.00
  sub4              PermeablePavement     97.26      0.00     20.50      0.00     36.91      0.00     40.42       -0.59
  sub5              GreenRoof            97.26      0.00      0.00      0.00      0.00      7.05    104.31       -0.00
  sub5              PermeablePavement     97.26      0.00     20.50      0.00     36.91      0.00     40.42       -0.59
  sub6              GreenRoof            97.26      0.00      0.00      0.00      0.00      7.05    104.31       -0.00
  sub6              PermeablePavement     97.26      0.00     20.50      0.00     36.91      0.00     40.42       -0.59
  sub7              GreenRoof            97.26      0.00      0.00      0.00      0.00      7.05    104.31       -0.00
  sub7              PermeablePavement     97.26      0.00     20.50      0.00     36.91      0.00     40.42       -0.59
  sub8              GreenRoof            97.26      0.00      0.00      0.00      0.00      7.05    104.31       -0.00
  sub8              PermeablePavement     97.26      0.00     20.50      0.00     36.91      0.00     40.42       -0.59
  sub9              GreenRoof            97.26      0.00      0.00      0.00      0.00      7.05    104.31       -0.00
  sub9              PermeablePavement     97.26      0.00     20.50      0.00     36.91      0.00     40.42       -0.59
  sub10             GreenRoof            97.26      0.00      0.00      0.00      0.00      7.05    104.31       -0.00
  sub10             PermeablePavement     97.26      0.00     20.50      0.00     36.91      0.00     40.42       -0.59
  sub11             GreenRoof            97.26      0.00      0.00      0.00      0.00      7.05    104.31       -0.00
  sub11             PermeablePavement     97.26      0.00     20.50      0.00     36.91      0.00     40.42       -0.59
  sub12             GreenRoof            97.26      0.00      0.00      0.00      0.00      7.05    104.31       -0.00
  sub12             PermeablePavement     97.26      0.00     20.50      0.00     36.91      0.00     40.42       -0.59
  sub13             PermeablePavement     97.26      0.00     20.50      0.00     36.91      0.00     40.42       -0.59
  sub14             GreenRoof            97.26      0.00      0.00      0.00      0.00      7.05    104.31       -0.00
  sub14             PermeablePavement     97.26      0.00     20.50      0.00     36.91      0.00     40.42       -0.59
  sub15             GreenRoof            97.26      0.00      0.00      0.00      0.00      7.05    104.31       -0.00
  sub15             PermeablePavement     97.26      0.00     20.50      0.00     36.91      0.00     40.42       -0.59
  sub16             GreenRoof            97.26      0.00      0.00      0.00      0.00      7.05    104.31       -0.00
  sub16             PermeablePavement     97.26      0.00     20.50      0.00     36.91      0.00     40.42       -0.59
  sub17             GreenRoof            97.26      0.00      0.00      0.00      0.00      7.05    104.31       -0.00
  sub17             PermeablePavement     97.26      0.00     20.50      0.00     36.91      0.00     40.42       -0.59
  sub18             GreenRoof            97.26      0.00      0.00      0.00      0.00      7.05    104.31       -0.00
  sub18             PermeablePavement     97.26      0.00     20.50      0.00     36.91      0.00     40.42       -0.59
  sub19             GreenRoof            97.26      0.00      0.00      0.00      0.00      7.05    104.31       -0.00
  sub19             PermeablePavement     97.26      0.00     20.50      0.00     36.91      0.00     40.42       -0.59
  sub20             GreenRoof            97.26      0.00      0.00      0.00      0.00      7.05    104.31       -0.00
  sub20             PermeablePavement     97.26      0.00     20.50      0.00     36.91      0.00     40.42       -0.59
  sub21             GreenRoof            97.26      0.00      0.00      0.00      0.00      7.05    104.31       -0.00
  sub21             PermeablePavement     97.26      0.00     20.50      0.00     36.91      0.00     40.42       -0.59
  sub22             GreenRoof            97.26      0.00      0.00      0.00      0.00      7.05    104.31       -0.00
  sub22             PermeablePavement     97.26      0.00     20.50      0.00     36.91      0.00     40.42       -0.59
  sub23             GreenRoof            97.26      0.00      0.00      0.00      0.00      7.05    104.31       -0.00
  sub23             PermeablePavement     97.26      0.00     20.50      0.00     36.91      0.00     40.42       -0.59
  sub24             GreenRoof            97.26      0.00      0.00      0.00      0.00      7.05    104.31       -0.00
  sub24             PermeablePavement     97.26      0.00     20.50      0.00     36.91      0.00     40.42       -0.59
  sub25             GreenRoof            97.26      0.00      0.00      0.00      0.00      7.05    104.31       -0.00
  sub25             PermeablePavement     97.26      0.00     20.50      0.00     36.91      0.00     40.42       -0.59
  sub26             GreenRoof            97.26      0.00      0.00      0.00      0.00      7.05    104.31       -0.00
  sub26             PermeablePavement     97.26      0.00     20.50      0.00     36.91      0.00     40.42       -0.59
  sub27             GreenRoof            97.26      0.00      0.00      0.00      0.00      7.05    104.31       -0.00
  sub27             PermeablePavement     97.26      0.00     20.50      0.00     36.91      0.00     40.42       -0.59
  sub28             GreenRoof            97.26      0.00      0.00      0.00      0.00      7.05    104.31       -0.00
  sub28             PermeablePavement     97.26      0.00     20.50      0.00     36.91      0.00     40.42       -0.59
  sub29             GreenRoof            97.26      0.00      0.00      0.00      0.00      7.05    104.31       -0.00
  sub29             PermeablePavement     97.26      0.00     20.50      0.00     36.91      0.00     40.42       -0.59
  sub30             GreenRoof            97.26      0.00      0.00      0.00      0.00      7.05    104.31       -0.00
  sub30             PermeablePavement     97.26      0.00     20.50      0.00     36.91      0.00     40.42       -0.59
  sub31             GreenRoof            97.26      0.00      0.00      0.00      0.00      7.05    104.31       -0.00
  sub31             PermeablePavement     97.26      0.00     20.50      0.00     36.91      0.00     40.42       -0.59
  sub32             GreenRoof            97.26      0.00      0.00      0.00      0.00      7.05    104.31       -0.00
  sub32             PermeablePavement     97.26      0.00     20.50      0.00     36.91      0.00     40.42       -0.59
  sub33             GreenRoof            97.26      0.00      0.00      0.00      0.00      7.05    104.31       -0.00
  sub33             PermeablePavement     97.26      0.00     20.50      0.00     36.91      0.00     40.42       -0.59
  sub34             GreenRoof            97.26      0.00      0.00      0.00      0.00      7.05    104.31       -0.00
  sub34             PermeablePavement     97.26      0.00     20.50      0.00     36.91      0.00     40.42       -0.59
  sub35             GreenRoof            97.26      0.00      0.00      0.00      0.00      7.05    104.31       -0.00
  sub35             PermeablePavement     97.26      0.00     20.50      0.00     36.91      0.00     40.42       -0.59
  sub36             GreenRoof            97.26      0.00      0.00      0.00      0.00      7.05    104.31       -0.00
  sub36             PermeablePavement     97.26      0.00     20.50      0.00     36.91      0.00     40.42       -0.59
  sub37             GreenRoof            97.26      0.00      0.00      0.00      0.00      7.05    104.31       -0.00
  sub37             PermeablePavement     97.26      0.00     20.50      0.00     36.91      0.00     40.42       -0.59
  sub38             GreenRoof            97.26      0.00      0.00      0.00      0.00      7.05    104.31       -0.00
  sub38             PermeablePavement     97.26      0.00     20.50      0.00     36.91      0.00     40.42       -0.59
  sub39             GreenRoof            97.26      0.00      0.00      0.00      0.00      7.05    104.31       -0.00
  sub39             PermeablePavement     97.26      0.00     20.50      0.00     36.91      0.00     40.42       -0.59
  sub40             GreenRoof            97.26      0.00      0.00      0.00      0.00      7.05    104.31       -0.00
  sub40             PermeablePavement     97.26      0.00     20.50      0.00     36.91      0.00     40.42       -0.59
  sub41             GreenRoof            97.26      0.00      0.00      0.00      0.00      7.05    104.31       -0.00
  sub41             PermeablePavement     97.26      0.00     20.50      0.00     36.91      0.00     40.42       -0.59
  sub42             GreenRoof            97.26      0.00      0.00      0.00      0.00      7.05    104.31       -0.00
  sub42             PermeablePavement     97.26      0.00     20.50      0.00     36.91      0.00     40.42       -0.59
  sub44             GreenRoof            97.26      0.00      0.00      0.00      0.00      7.05    104.31       -0.00
  sub44             PermeablePavement     97.26      0.00     20.50      0.00     36.91      0.00     40.42       -0.59
  sub45             GreenRoof            97.26      0.00      0.00      0.00      0.00      7.05    104.31       -0.00
  sub45             PermeablePavement     97.26      0.00     20.50      0.00     36.91      0.00     40.42       -0.59
  sub46             GreenRoof            97.26      0.00      0.00      0.00      0.00      7.05    104.31       -0.00
  sub46             PermeablePavement     97.26      0.00     20.50      0.00     36.91      0.00     40.42       -0.59
  sub47             GreenRoof            97.26      0.00      0.00      0.00      0.00      7.05    104.31       -0.00
  sub47             PermeablePavement     97.26      0.00     20.50      0.00     36.91      0.00     40.42       -0.59
  sub48             GreenRoof            97.26      0.00      0.00      0.00      0.00      7.05    104.31       -0.00
  sub48             PermeablePavement     97.26      0.00     20.50      0.00     36.91      0.00     40.42       -0.59
  sub49             GreenRoof            97.26      0.00      0.00      0.00      0.00      7.05    104.31       -0.00
  sub49             PermeablePavement     97.26      0.00     20.50      0.00     36.91      0.00     40.42       -0.59
  sub50             GreenRoof            97.26      0.00      0.00      0.00      0.00      7.05    104.31       -0.00
  sub50             PermeablePavement     97.26      0.00     20.50      0.00     36.91      0.00     40.42       -0.59
  sub51             GreenRoof            97.26      0.00      0.00      0.00      0.00      7.05    104.31       -0.00
  sub51             PermeablePavement     97.26      0.00     20.50      0.00     36.91      0.00     40.42       -0.59
  sub52             GreenRoof            97.26      0.00      0.00      0.00      0.00      7.05    104.31       -0.00
  sub52             PermeablePavement     97.26      0.00     20.50      0.00     36.91      0.00     40.42       -0.59
  sub53             GreenRoof            97.26      0.00      0.00      0.00      0.00      7.05    104.31       -0.00
  sub53             PermeablePavement     97.26      0.00     20.50      0.00     36.91      0.00     40.42       -0.59
  sub54             GreenRoof            97.26      0.00      0.00      0.00      0.00      7.05    104.31       -0.00
  sub54             PermeablePavement     97.26      0.00     20.50      0.00     36.91      0.00     40.42       -0.59
  sub55             GreenRoof            97.26      0.00      0.00      0.00      0.00      7.05    104.31       -0.00
  sub55             PermeablePavement     97.26      0.00     20.50      0.00     36.91      0.00     40.42       -0.59
  sub56             GreenRoof            97.26      0.00      0.00      0.00      0.00      7.05    104.31       -0.00
  sub56             PermeablePavement     97.26      0.00     20.50      0.00     36.91      0.00     40.42       -0.59
  sub57             GreenRoof            97.26      0.00      0.00      0.00      0.00      7.05    104.31       -0.00
  sub58             PermeablePavement     97.26      0.00     20.50      0.00     36.91      0.00     40.42       -0.59
  sub59             PermeablePavement     97.26      0.00     20.50      0.00     36.91      0.00     40.42       -0.59
  sub60             GreenRoof            97.26      0.00      0.00      0.00      0.00      7.05    104.31       -0.00
  sub60             PermeablePavement     97.26      0.00     20.50      0.00     36.91      0.00     40.42       -0.59
  sub61             GreenRoof            97.26      0.00      0.00      0.00      0.00      7.05    104.31       -0.00
  sub61             PermeablePavement     97.26      0.00     20.50      0.00     36.91      0.00     40.42       -0.59
  sub62             GreenRoof            97.26      0.00      0.00      0.00      0.00      7.05    104.31       -0.00
  sub62             PermeablePavement     97.26      0.00     20.50      0.00     36.91      0.00     40.42       -0.59
  sub67             GreenRoof            97.26      0.00      0.00      0.00      0.00      7.05    104.31       -0.00
  sub67             PermeablePavement     97.26      0.00     20.50      0.00     36.91      0.00     40.42       -0.59
  sub68             GreenRoof            97.26      0.00      0.00      0.00      0.00      7.05    104.31       -0.00
  sub68             PermeablePavement     97.26      0.00     20.50      0.00     36.91      0.00     40.42       -0.59
  sub71             GreenRoof            97.26      0.00      0.00      0.00      0.00      7.05    104.31       -0.00
  sub71             PermeablePavement     97.26      0.00     20.50      0.00     36.91      0.00     40.42       -0.59
  sub72             GreenRoof            97.26      0.00      0.00      0.00      0.00      7.05    104.31       -0.00
  sub72             PermeablePavement     97.26      0.00     20.50      0.00     36.91      0.00     40.42       -0.59
  sub73             GreenRoof            97.26      0.00      0.00      0.00      0.00      7.05    104.31       -0.00
  sub74             GreenRoof            97.26      0.00      0.00      0.00      0.00      7.05    104.31       -0.00
  sub75             GreenRoof            97.26      0.00      0.00      0.00      0.00      7.05    104.31       -0.00
  sub75             PermeablePavement     97.26      0.00     20.50      0.00     36.91      0.00     40.42       -0.59
  sub76             GreenRoof            97.26      0.00      0.00      0.00      0.00      7.05    104.31       -0.00
  sub76             PermeablePavement     97.26      0.00     20.50      0.00     36.91      0.00     40.42       -0.59
  sub77             GreenRoof            97.26      0.00      0.00      0.00      0.00      7.05    104.31       -0.00
  sub77             PermeablePavement     97.26      0.00     20.50      0.00     36.91      0.00     40.42       -0.59
  sub78             GreenRoof            97.26      0.00      0.00      0.00      0.00      7.05    104.31       -0.00
  sub78             PermeablePavement     97.26      0.00     20.50      0.00     36.91      0.00     40.42       -0.59
  sub79             GreenRoof            97.26      0.00      0.00      0.00      0.00      7.05    104.31       -0.00
  sub79             PermeablePavement     97.26      0.00     20.50      0.00     36.91      0.00     40.42       -0.59
  sub80             GreenRoof            97.26      0.00      0.00      0.00      0.00      7.05    104.31       -0.00
  sub80             PermeablePavement     97.26      0.00     20.50      0.00     36.91      0.00     40.42       -0.59
  sub81             GreenRoof            97.26      0.00      0.00      0.00      0.00      7.05    104.31       -0.00
  sub81             PermeablePavement     97.26      0.00     20.50      0.00     36.91      0.00     40.42       -0.59
  sub82             GreenRoof            97.26      0.00      0.00      0.00      0.00      7.05    104.31       -0.00
  sub82             PermeablePavement     97.26      0.00     20.50      0.00     36.91      0.00     40.42       -0.59
  sub83             GreenRoof            97.26      0.00      0.00      0.00      0.00      7.05    104.31       -0.00
  sub83             PermeablePavement     97.26      0.00     20.50      0.00     36.91      0.00     40.42       -0.59
  sub84             GreenRoof            97.26      0.00      0.00      0.00      0.00      7.05    104.31       -0.00
  sub84             PermeablePavement     97.26      0.00     20.50      0.00     36.91      0.00     40.42       -0.59
  sub85             GreenRoof            97.26      0.00      0.00      0.00      0.00      7.05    104.31       -0.00
  sub85             PermeablePavement     97.26      0.00     20.50      0.00     36.91      0.00     40.42       -0.59
  sub86             GreenRoof            97.26      0.00      0.00      0.00      0.00      7.05    104.31       -0.00
  sub86             PermeablePavement     97.26      0.00     20.50      0.00     36.91      0.00     40.42       -0.59
  sub88             GreenRoof            97.26      0.00      0.00      0.00      0.00      7.05    104.31       -0.00
  sub89             GreenRoof            97.26      0.00      0.00      0.00      0.00      7.05    104.31       -0.00
  sub90             GreenRoof            97.26      0.00      0.00      0.00      0.00      7.05    104.31       -0.00
  sub91             GreenRoof            97.26      0.00      0.00      0.00      0.00      7.05    104.31       -0.00
  sub97             PermeablePavement     97.26      0.00     20.50      0.00     36.91      0.00     40.42       -0.59
  sub98             PermeablePavement     97.26      0.00     20.50      0.00     36.91      0.00     40.42       -0.59
  sub107            PermeablePavement     97.26      0.00     20.50      0.00     36.91      0.00     40.42       -0.59
  sub108            PermeablePavement     97.26      0.00     20.50      0.00     36.91      0.00     40.42       -0.59
  sub109            GreenRoof            97.26      0.00      0.00      0.00      0.00      7.05    104.31       -0.00
  sub109            PermeablePavement     97.26      0.00     20.50      0.00     36.91      0.00     40.42       -0.59
  sub110            GreenRoof            97.26      0.00      0.00      0.00      0.00      7.05    104.31       -0.00
  sub110            PermeablePavement     97.26      0.00     20.50      0.00     36.91      0.00     40.42       -0.59
  sub111            GreenRoof            97.26      0.00      0.00      0.00      0.00      7.05    104.31       -0.00
  sub111            PermeablePavement     97.26      0.00     20.50      0.00     36.91      0.00     40.42       -0.59
  sub112            GreenRoof            97.26      0.00      0.00      0.00      0.00      7.05    104.31       -0.00
  sub112            PermeablePavement     97.26      0.00     20.50      0.00     36.91      0.00     40.42       -0.59
  sub113            GreenRoof            97.26      0.00      0.00      0.00      0.00      7.05    104.31       -0.00
  sub113            PermeablePavement     97.26      0.00     20.50      0.00     36.91      0.00     40.42       -0.59
  sub114            GreenRoof            97.26      0.00      0.00      0.00      0.00      7.05    104.31       -0.00
  sub114            PermeablePavement     97.26      0.00     20.50      0.00     36.91      0.00     40.42       -0.59
  sub115            GreenRoof            97.26      0.00      0.00      0.00      0.00      7.05    104.31       -0.00
  sub115            PermeablePavement     97.26      0.00     20.50      0.00     36.91      0.00     40.42       -0.59
  sub116            GreenRoof            97.26      0.00      0.00      0.00      0.00      7.05    104.31       -0.00
  sub116            PermeablePavement     97.26      0.00     20.50      0.00     36.91      0.00     40.42       -0.59
  sub117            GreenRoof            97.26      0.00      0.00      0.00      0.00      7.05    104.31       -0.00
  sub117            PermeablePavement     97.26      0.00     20.50      0.00     36.91      0.00     40.42       -0.59
  
  ******************
  Node Depth Summary
  ******************
  
  ---------------------------------------------------------------------------------
                                 Average  Maximum  Maximum  Time of Max    Reported
                                   Depth    Depth      HGL   Occurrence   Max Depth
  Node                 Type       Meters   Meters   Meters  days hr:min      Meters
  ---------------------------------------------------------------------------------
  WS02001211           JUNCTION     1.00     2.35     7.19     0  00:49        1.91
  WS02001212           JUNCTION     0.76     2.00     7.06     0  00:49        1.56
  WS02001213           JUNCTION     1.00     2.24     7.01     0  00:49        1.85
  WS02003069           JUNCTION     0.96     1.69     6.27     0  00:52        1.68
  WS02003072           JUNCTION     1.03     1.58     5.95     0  00:52        1.58
  WS02003073           JUNCTION     1.25     1.70     5.77     0  00:52        1.70
  WS02003076           JUNCTION     0.99     1.36     5.58     0  00:52        1.35
  WS02003060           JUNCTION     0.84     1.68     6.61     0  00:52        1.68
  WS02003066           JUNCTION     0.50     1.17     6.72     0  00:52        1.17
  WS02003059           JUNCTION     1.07     2.03     6.72     0  00:49        1.92
  WS02003115           JUNCTION     1.99     2.74     9.60     0  00:35        2.73
  WS02003116           JUNCTION     2.13     3.03     9.74     0  00:25        2.94
  WS02003118           JUNCTION     2.11     2.90     9.52     0  00:25        2.90
  WS02003215           JUNCTION     2.01     2.80     9.66     0  00:35        2.80
  WS02003110           JUNCTION     1.63     2.31     9.56     0  00:50        2.30
  WS02003111           JUNCTION     1.75     2.35     9.44     0  00:35        2.35
  WS02005155           JUNCTION     1.60     2.36     9.67     0  00:51        2.35
  WS02005154           JUNCTION     1.36     2.20     9.83     0  00:51        2.19
  WS02005193           JUNCTION     1.46     3.22    11.04     0  00:46        2.96
  WS02005196           JUNCTION     1.43     3.31    11.16     0  00:46        2.94
  WS02003067           JUNCTION     0.83     1.48     6.80     0  00:52        1.47
  WS02004401           JUNCTION     1.47     2.51     8.51     0  00:50        2.45
  WS02004402           JUNCTION     1.47     2.52     8.48     0  00:50        2.46
  WS02004403           JUNCTION     1.45     2.51     8.44     0  00:50        2.46
  WS02004404           JUNCTION     1.49     2.57     8.42     0  00:50        2.52
  WS02004406           JUNCTION     1.43     2.52     8.35     0  00:51        2.49
  WS02004409           JUNCTION     1.20     2.31     8.08     0  00:50        2.30
  WS02004410           JUNCTION     1.10     2.10     7.82     0  00:52        2.09
  WS02004411           JUNCTION     1.01     1.88     7.56     0  00:52        1.87
  WS02004412           JUNCTION     0.92     1.64     7.28     0  00:52        1.63
  WS02004413           JUNCTION     0.96     1.55     7.02     0  00:52        1.54
  WS02004405           JUNCTION     1.47     2.55     8.40     0  00:50        2.51
  WS02006109           JUNCTION     1.97     2.64     9.26     0  00:44        2.64
  WS02006110           JUNCTION     1.77     2.48     9.07     0  00:58        2.48
  WS02006111           JUNCTION     1.17     2.00     8.70     0  00:59        1.99
  WS02006112           JUNCTION     1.78     2.68     8.56     0  00:00        2.68
  WS02006113           JUNCTION     1.25     2.00     8.89     0  00:50        1.99
  WS02006115           JUNCTION     1.45     2.41     8.55     0  00:50        2.38
  WS02006116           JUNCTION     1.49     2.49     8.53     0  00:50        2.45
  WS02006230           JUNCTION     2.05     2.65     9.39     0  00:40        2.65
  WS02006231           JUNCTION     1.64     2.19     9.31     0  01:22        2.19
  WS02006232           JUNCTION     1.68     2.18     9.22     0  00:40        2.18
  WS02006234           JUNCTION     1.51     1.96     9.12     0  00:38        1.96
  WS02006235           JUNCTION     1.49     1.93     9.10     0  01:00        1.93
  WS02006238           JUNCTION     1.50     1.94     9.08     0  00:43        1.93
  WS02006240           JUNCTION     1.28     1.63     8.92     0  01:02        1.62
  WS02006242           JUNCTION     1.26     1.55     8.82     0  00:25        1.55
  WS02006243           JUNCTION     1.10     1.42     8.84     0  00:27        1.37
  WS02006245           JUNCTION     1.03     1.27     8.75     0  01:22        1.26
  WS02006247           JUNCTION     1.01     1.23     8.73     0  01:29        1.22
  WS02006248           JUNCTION     0.91     1.10     8.69     0  00:30        1.10
  WS02006249           JUNCTION     0.92     1.09     8.69     0  00:27        1.09
  WS02006239           JUNCTION     1.40     1.79     9.00     0  00:41        1.78
  WS02006251           JUNCTION     1.38     2.21     9.88     0  00:46        2.16
  WS02006252           JUNCTION     0.97     1.50     9.74     0  00:46        1.50
  WS02006253           JUNCTION     1.63     3.22    10.87     0  00:46        3.13
  WS02006256           JUNCTION     1.87     2.35     9.28     0  00:16        2.35
  WS02004138           JUNCTION     0.12     0.14     7.39     0  00:33        0.14
  WS02004139           JUNCTION     0.93     2.31     7.22     0  00:49        1.87
  WS02004407           JUNCTION     0.84     2.07     8.39     0  00:50        1.95
  WS02006228           JUNCTION     2.19     3.03     9.68     0  00:44        3.03
  WS02006229           JUNCTION     2.29     3.23     9.92     0  00:50        3.22
  WS02006280           JUNCTION     1.01     1.75    10.02     0  00:49        1.74
  WS02006284           JUNCTION     1.16     1.95    10.35     0  00:49        1.94
  WS02006287           JUNCTION     0.90     1.74    10.70     0  00:49        1.74
  WS02003091           JUNCTION     2.88     4.43    10.23     0  00:00        3.91
  WS02003203           JUNCTION     2.82     3.83     9.82     0  00:00        3.83
  WS6145               JUNCTION     0.38     2.33    10.44     0  00:52        2.28
  WS6147               JUNCTION     0.31     2.25    10.53     0  00:51        2.15
  WS6150               JUNCTION     0.30     2.23    10.56     0  00:51        2.11
  WS6152               JUNCTION     0.31     2.20    10.54     0  00:51        2.13
  WS6155               JUNCTION     0.28     2.10    10.50     0  00:50        2.09
  WS6156               JUNCTION     0.26     2.05    10.52     0  00:51        2.05
  WS6136               JUNCTION     0.34     1.90    10.85     0  00:51        1.90
  WS6140               JUNCTION     0.42     2.46    10.40     0  00:52        2.44
  WS6142               JUNCTION     0.37     2.34    10.42     0  00:52        2.30
  WS6325               JUNCTION     0.65     2.74    10.40     0  00:52        2.74
  WS6327               JUNCTION     0.50     2.58    10.40     0  00:52        2.58
  WS6329               JUNCTION     0.45     2.52    10.41     0  00:52        2.51
  WS6332               JUNCTION     0.38     2.51    10.54     0  00:50        2.37
  WS6158               JUNCTION     0.24     2.05    10.59     0  00:51        2.05
  WS6335               JUNCTION     0.38     2.59    10.66     0  00:50        2.33
  WS6338               JUNCTION     0.32     2.55    10.75     0  00:50        2.21
  WS6340               JUNCTION     0.28     2.50    10.84     0  00:50        2.07
  WS6342               JUNCTION     0.22     2.50    11.10     0  00:50        1.81
  WS6135               JUNCTION     0.80     2.90    10.39     0  00:52        2.88
  WS6396               JUNCTION     0.50     2.02     9.57     0  00:52        2.02
  WS6399               JUNCTION     0.31     1.37     8.80     0  00:52        1.36
  WS02003082           JUNCTION     1.38     1.93     7.00     0  00:51        1.92
  WS02003077           JUNCTION     0.48     0.84     5.85     0  00:52        0.84
  WS02003080           JUNCTION     0.90     1.30     6.24     0  00:52        1.29
  WS02003083           JUNCTION     1.77     2.41     7.44     0  00:55        2.40
  WS02003084           JUNCTION     1.91     2.60     7.70     0  00:52        2.59
  WS02003085           JUNCTION     2.00     2.72     7.89     0  00:52        2.72
  WS02003086           JUNCTION     2.24     3.02     8.22     0  00:53        3.02
  WS02003087           JUNCTION     2.51     3.36     8.57     0  00:53        3.35
  WS02003088           JUNCTION     2.71     4.14     9.43     0  00:00        4.07
  WS02003089           JUNCTION     2.83     4.34     9.80     0  00:00        4.02
  WS02003090           JUNCTION     3.05     4.12     9.55     0  00:00        4.04
  WS02003081           JUNCTION     1.13     1.61     6.66     0  00:53        1.61
  WS02003122           JUNCTION     2.30     3.11     9.48     0  00:56        3.11
  WS02003187           JUNCTION     2.32     3.11     9.44     0  00:47        3.11
  WS02003188           JUNCTION     2.29     2.97     9.23     0  00:47        2.97
  WS02003190           JUNCTION     2.28     2.84     9.04     0  00:32        2.84
  WS02003193           JUNCTION     2.27     2.85     9.09     0  00:24        2.85
  WS02003195           JUNCTION     2.30     2.93     9.18     0  00:32        2.93
  WS02003196           JUNCTION     2.41     3.13     9.31     0  00:50        3.12
  WS02003198           JUNCTION     2.45     3.22     9.41     0  00:50        3.20
  WS02003200           JUNCTION     2.21     2.99     9.42     0  00:32        2.93
  WS02003201           JUNCTION     2.48     3.22     9.36     0  00:32        3.22
  WS02003202           JUNCTION     2.63     4.17    10.23     0  00:00        3.48
  WS02004041           JUNCTION     0.66     0.98     5.34     0  00:52        0.98
  WSA6400              JUNCTION     1.15     2.42     8.26     0  00:52        2.42
  WS6400               JUNCTION     0.48     1.69     8.35     0  00:52        1.68
  WSF208               JUNCTION     0.85     1.94     8.03     0  00:52        1.94
  WSF207               JUNCTION     0.74     1.69     7.83     0  00:51        1.68
  WSF206               JUNCTION     0.82     1.74     7.67     0  00:52        1.73
  WSF205               JUNCTION     0.75     1.61     7.51     0  00:52        1.60
  WSF204               JUNCTION     1.27     2.17     7.33     0  00:52        2.16
  WSF203               JUNCTION     0.65     1.36     7.07     0  00:52        1.36
  WSF202               JUNCTION     0.57     1.19     6.92     0  00:52        1.18
  WSF201               JUNCTION     0.48     1.04     6.77     0  00:52        1.04
  WSF200               JUNCTION     0.63     1.45     6.69     0  00:52        1.45
  HS02004901           JUNCTION     0.75     1.42    11.24     0  00:44        1.42
  HS02004881           JUNCTION     0.57     2.15    11.18     0  00:46        1.87
  HS02004876           JUNCTION     0.69     2.12    11.15     0  00:51        2.12
  HS02004870           JUNCTION     0.59     2.10    11.39     0  00:46        2.02
  HS02004862           JUNCTION     0.60     2.00    11.38     0  00:46        2.00
  HS02004856           JUNCTION     0.63     2.07    11.50     0  00:46        2.07
  HS02004852           JUNCTION     0.57     2.12    11.63     0  00:46        2.00
  HS02004848           JUNCTION     0.55     2.07    11.67     0  00:46        1.92
  HS02004842           JUNCTION     0.86     2.22    11.49     0  00:46        2.22
  HS02004837           JUNCTION     0.58     2.00    11.58     0  00:46        1.91
  HS02004830           JUNCTION     0.65     2.03    11.50     0  00:46        1.99
  HS02004824           JUNCTION     0.70     2.01    11.41     0  00:46        2.01
  HS02004817           JUNCTION     1.19     2.43    11.28     0  00:46        2.41
  HS02004807           JUNCTION     0.87     1.92    11.09     0  00:46        1.92
  HS02004802           JUNCTION     0.88     1.80    10.93     0  00:49        1.80
  HS02004799           JUNCTION     0.98     1.76    10.97     0  00:44        1.76
  HS02004792           JUNCTION     0.79     1.60    11.12     0  00:41        1.60
  HS02004788           JUNCTION     0.59     1.42    11.32     0  00:44        1.42
  HS02004785           JUNCTION     0.63     1.49    11.39     0  00:44        1.40
  HS02004777           JUNCTION     0.76     1.48    11.28     0  00:44        1.47
  HS02004770           JUNCTION     0.74     1.42    11.25     0  00:44        1.42
  HS02004480           JUNCTION     0.88     1.67    10.91     0  00:46        1.64
  HS02004479           JUNCTION     0.92     1.69    10.90     0  00:44        1.67
  HS02004478           JUNCTION     0.76     1.59    10.82     0  00:49        1.58
  HS02004053           JUNCTION     0.28     1.90    10.67     0  00:50        1.87
  HS02004052           JUNCTION     0.34     1.50    11.15     0  00:50        1.42
  HS02004049           JUNCTION     0.20     1.10    11.78     0  00:50        0.86
  HS02004048           JUNCTION     0.47     1.70    12.60     0  00:49        1.70
  HS02004046           JUNCTION     0.43     1.80    13.52     0  00:49        1.61
  HS02004043           JUNCTION     0.22     1.98    14.67     0  00:49        1.56
  HS02004041           JUNCTION     0.14     0.39    15.84     0  00:51        0.39
  HS02004038           JUNCTION     0.13     0.35    19.03     0  00:51        0.34
  HS02004036           JUNCTION     0.00     0.00    22.46     0  00:00        0.00
  HS02004034           JUNCTION     0.00     0.00    26.83     0  00:00        0.00
  HS02004028           JUNCTION     0.20     0.51    37.36     0  00:48        0.51
  HS02004027           JUNCTION     0.16     0.34    36.47     0  00:48        0.34
  HS02004026           JUNCTION     0.16     0.35    35.75     0  00:48        0.35
  HS02004024           JUNCTION     0.17     0.42    34.63     0  00:49        0.42
  HS02004022           JUNCTION     0.23     0.80    33.84     0  00:48        0.80
  HS02004021           JUNCTION     0.28     0.81    32.54     0  00:46        0.81
  HS02004019           JUNCTION     0.34     0.80    31.76     0  00:45        0.80
  HS02004018           JUNCTION     0.23     0.60    33.81     0  00:48        0.60
  HS02004017           JUNCTION     0.22     0.53    34.37     0  00:48        0.53
  HS02004013           JUNCTION     0.14     0.46    35.60     0  00:51        0.46
  HS02004010           JUNCTION     0.05     0.16    38.03     0  00:51        0.16
  HS02003174           JUNCTION     0.18     0.44     5.97     0  00:52        0.44
  HS02003171           JUNCTION     0.20     0.49     6.17     0  00:51        0.49
  HS02003170           JUNCTION     0.24     0.46     6.92     0  00:52        0.46
  HS02003168           JUNCTION     0.12     0.30     6.80     0  00:51        0.30
  HS02003166           JUNCTION     0.23     0.47     6.94     0  00:52        0.47
  HS02003162           JUNCTION     0.23     0.42    30.68     0  00:45        0.42
  HS02003160           JUNCTION     0.17     0.36    28.41     0  00:51        0.35
  HS02003150           JUNCTION     0.18     0.38    26.40     0  00:51        0.38
  HS02003148           JUNCTION     0.20     0.48    22.22     0  00:51        0.47
  HS02003145           JUNCTION     0.25     0.81    14.68     0  00:50        0.81
  HS02003143           JUNCTION     0.38     0.80    13.27     0  00:42        0.80
  HS02003138           JUNCTION     0.19     0.47     6.97     0  01:41        0.47
  HS02003136           JUNCTION     1.47     2.28    10.00     0  00:00        2.28
  HS02003125           JUNCTION     1.54     2.40     9.85     0  00:35        2.28
  HS02003122           JUNCTION     1.58     2.54     9.97     0  00:35        2.37
  HS02003119           JUNCTION     1.35     2.46    10.18     0  00:35        2.14
  HS02003116           JUNCTION     1.03     2.43    10.55     0  00:35        1.74
  HS02003111           JUNCTION     0.46     0.85     9.86     0  00:51        0.85
  HS02003108           JUNCTION     0.37     1.03    10.14     0  00:46        0.78
  HS02003100           JUNCTION     0.26     0.78    10.01     0  00:51        0.70
  HS02003088           JUNCTION     0.21     0.74    10.04     0  00:51        0.70
  HS02003084           JUNCTION     0.09     0.58    10.01     0  00:52        0.58
  HS02003079           JUNCTION     0.06     0.50    10.02     0  00:52        0.50
  HS02003077           JUNCTION     0.01     0.29    10.03     0  00:51        0.29
  HS02003065           JUNCTION     0.68     1.62    10.85     0  00:50        1.61
  HS02003056           JUNCTION     0.72     1.74    10.68     0  00:49        1.70
  HS02003053           JUNCTION     0.48     1.66    10.96     0  00:49        1.56
  HS02003042           JUNCTION     0.32     1.66    11.32     0  00:49        1.32
  HS02003039           JUNCTION     0.36     1.74    11.40     0  00:49        1.40
  HS02003036           JUNCTION     0.17     1.41    11.47     0  00:49        1.15
  HS02003028           JUNCTION     0.29     1.40    11.14     0  00:48        1.40
  HS02003021           JUNCTION     0.31     1.55    10.92     0  00:48        1.49
  HS02003018           JUNCTION     0.32     1.48    10.69     0  00:48        1.48
  HS02003017           JUNCTION     0.33     1.48    10.64     0  00:48        1.48
  HS02003013           JUNCTION     0.32     1.47    10.52     0  00:48        1.42
  HS02003010           JUNCTION     0.35     1.45    10.25     0  00:48        1.29
  HS02003007           JUNCTION     0.31     1.32     9.94     0  00:48        1.09
  HS02003004           JUNCTION     0.40     1.05     9.37     0  00:48        0.98
  HS02003001           JUNCTION     0.11     0.29     8.58     0  00:52        0.29
  YS02001738           JUNCTION     0.00     0.00     8.89     0  00:00        0.00
  YS02001739           JUNCTION     0.00     0.00     8.37     0  00:00        0.00
  YS02001742           JUNCTION     0.00     0.00     8.49     0  00:00        0.00
  YS02001745           JUNCTION     0.14     0.34     7.86     0  00:52        0.34
  YS02001748           JUNCTION     0.16     0.43     7.51     0  00:53        0.42
  YS02001751           JUNCTION     0.16     0.64     7.52     0  00:53        0.64
  YS02001754           JUNCTION     0.17     0.95     7.56     0  00:53        0.94
  YS02001762           JUNCTION     0.37     1.41     7.81     0  00:52        1.38
  YS02001765           JUNCTION     0.35     1.48     7.93     0  00:52        1.41
  YS02001767           JUNCTION     0.37     1.57     8.06     0  00:52        1.48
  YS02001770           JUNCTION     0.43     1.82     8.32     0  00:52        1.64
  YS02001774           JUNCTION     0.50     1.93     8.35     0  00:52        1.72
  YS02001779           JUNCTION     0.24     1.68     8.37     0  00:52        1.47
  YS02001882           JUNCTION     0.74     1.83     8.55     0  00:46        1.64
  YS02001884           JUNCTION     0.84     1.91     8.52     0  00:46        1.74
  YS02001759           JUNCTION     0.37     1.45     7.82     0  00:52        1.32
  YS02001887           JUNCTION     0.92     1.91     8.44     0  00:46        1.82
  YS02001890           JUNCTION     0.94     1.81     8.32     0  00:46        1.81
  YS02001898           JUNCTION     0.71     1.73     8.47     0  00:46        1.56
  YS02001901           JUNCTION     0.81     1.71     8.32     0  00:46        1.67
  YS02001904           JUNCTION     0.79     1.64     8.27     0  00:47        1.63
  YS02001907           JUNCTION     1.11     1.96     8.25     0  00:47        1.96
  YS02001910           JUNCTION     0.93     2.02     8.53     0  00:50        1.94
  YS02001915           JUNCTION     0.76     2.00     8.72     0  00:50        1.86
  YS02001918           JUNCTION     0.49     1.81     8.88     0  00:47        1.59
  YS02001920           JUNCTION     0.58     2.13     9.14     0  00:49        1.69
  YS02001923           JUNCTION     0.40     2.03     9.29     0  00:49        1.48
  YS02001926           JUNCTION     0.41     1.90     9.35     0  00:49        1.34
  YS02001929           JUNCTION     0.27     1.78     9.47     0  00:49        1.13
  YS02001932           JUNCTION     0.18     1.77     9.57     0  00:50        1.05
  YS02001935           JUNCTION     0.13     1.75     9.68     0  00:49        1.71
  YS02001757           JUNCTION     0.35     1.25     7.51     0  00:53        1.24
  YS02001895           JUNCTION     0.71     1.64     8.39     0  00:46        1.56
  YS02005679           JUNCTION     0.00     0.00    10.24     0  00:00        0.00
  YS02005559           JUNCTION     0.11     0.23    10.18     0  00:53        0.23
  YS02005651           JUNCTION     0.07     0.18    10.95     0  00:52        0.18
  YS02005670           JUNCTION     0.07     0.20    10.65     0  00:51        0.20
  YS02005547           JUNCTION     0.06     0.16    10.70     0  00:51        0.16
  YS02005549           JUNCTION     0.08     0.25    11.16     0  00:51        0.25
  YS02005550           JUNCTION     0.11     0.47    11.10     0  00:50        0.40
  YS02005551           JUNCTION     0.06     0.15    10.53     0  00:52        0.15
  YS02005553           JUNCTION     0.13     0.42    10.78     0  00:51        0.37
  YS02005554           JUNCTION     0.07     0.15    10.39     0  00:53        0.15
  YS02005556           JUNCTION     0.13     0.28    10.34     0  00:53        0.28
  YS02005557           JUNCTION     0.07     0.15    10.11     0  00:53        0.15
  YS02005560           JUNCTION     0.08     0.17     9.91     0  00:53        0.17
  YS02005562           JUNCTION     0.13     0.26    10.00     0  00:52        0.26
  YS02005563           JUNCTION     0.07     0.15     9.81     0  00:53        0.15
  YS02005565           JUNCTION     0.11     0.23     9.94     0  00:53        0.23
  YS02005566           JUNCTION     0.09     0.19     9.58     0  00:53        0.19
  YS02005568           JUNCTION     0.15     0.45     9.95     0  00:51        0.41
  YS02005569           JUNCTION     0.11     0.22     9.55     0  00:53        0.22
  YS02005598           JUNCTION     0.21     1.07    10.91     0  00:48        1.07
  YS02005600           JUNCTION     0.19     1.02    10.68     0  00:48        1.02
  YS02005602           JUNCTION     0.42     2.15    10.43     0  00:49        2.15
  YS02005603           JUNCTION     0.14     1.33     9.45     0  00:49        0.58
  YS02005609           JUNCTION     0.08     0.22     9.11     0  00:52        0.22
  YS02005653           JUNCTION     0.13     0.85    11.82     0  00:51        0.85
  YS02005654           JUNCTION     0.14     0.64    11.39     0  00:51        0.63
  YS02005655           JUNCTION     0.06     0.15    10.78     0  00:52        0.14
  YS02005595           JUNCTION     0.31     1.36    11.04     0  00:46        1.36
  YS02005658           JUNCTION     0.11     0.55    11.46     0  00:50        0.46
  YS02005659           JUNCTION     0.06     0.15    10.81     0  00:52        0.15
  YS02005661           JUNCTION     0.14     0.63    11.33     0  00:52        0.62
  YS02005662           JUNCTION     0.05     0.14    10.76     0  00:52        0.14
  YS02005664           JUNCTION     0.14     0.51    11.10     0  00:52        0.51
  YS02005665           JUNCTION     0.05     0.12    10.68     0  00:52        0.12
  YS02005668           JUNCTION     0.05     0.12    10.28     0  00:51        0.12
  YS02005667           JUNCTION     0.27     0.61    10.62     0  00:51        0.60
  YS02005571           JUNCTION     0.18     0.51     9.99     0  00:53        0.50
  YS02005572           JUNCTION     0.12     0.26     9.62     0  00:53        0.26
  YS02005576           JUNCTION     0.13     0.44    10.20     0  00:52        0.35
  YS02005577           JUNCTION     0.11     0.24     9.73     0  00:53        0.24
  YS02005579           JUNCTION     0.32     1.12    10.74     0  00:50        1.12
  YS02005580           JUNCTION     0.20     0.91    10.44     0  00:50        0.69
  YS02005582           JUNCTION     0.34     0.86    10.94     0  00:49        0.86
  YS02005583           JUNCTION     0.17     0.79    10.79     0  00:49        0.41
  YS02005612           JUNCTION     0.43     1.54     9.67     0  00:52        1.54
  YS02005615           JUNCTION     0.06     0.16    11.65     0  00:51        0.16
  YS02005616           JUNCTION     0.05     0.13    10.95     0  00:51        0.12
  YS02005618           JUNCTION     0.09     0.27    11.13     0  00:51        0.27
  YS02005619           JUNCTION     0.05     0.15    10.70     0  00:51        0.15
  YS02005621           JUNCTION     0.10     0.45    11.56     0  00:51        0.33
  YS02005622           JUNCTION     0.04     0.12    11.08     0  00:51        0.12
  YS02005625           JUNCTION     0.04     0.11    11.12     0  00:51        0.11
  YS02005627           JUNCTION     0.11     0.44    11.37     0  00:50        0.42
  YS02005628           JUNCTION     0.04     0.11    11.01     0  00:51        0.11
  YS02005630           JUNCTION     0.10     0.55    11.62     0  00:50        0.42
  YS02005631           JUNCTION     0.05     0.13    11.00     0  00:52        0.13
  YS02005633           JUNCTION     0.10     0.51    11.64     0  00:50        0.42
  YS02005634           JUNCTION     0.05     0.14    10.98     0  00:52        0.14
  YS02005636           JUNCTION     0.12     0.62    11.61     0  00:52        0.62
  YS02005637           JUNCTION     0.06     0.17    10.93     0  00:52        0.17
  YS02005639           JUNCTION     0.11     0.52    11.15     0  00:52        0.52
  YS02005640           JUNCTION     0.06     0.17    10.50     0  00:52        0.17
  YS02005642           JUNCTION     0.08     0.22    11.04     0  00:52        0.22
  YS02005644           JUNCTION     0.12     0.59    11.70     0  00:52        0.59
  YS02005645           JUNCTION     0.08     0.19    11.00     0  00:52        0.19
  YS02005647           JUNCTION     0.23     1.03    11.92     0  00:50        1.03
  YS02005648           JUNCTION     0.09     0.23    11.02     0  00:50        0.23
  YS02005650           JUNCTION     0.14     0.69    11.58     0  00:51        0.68
  YS02005671           JUNCTION     0.04     0.10    10.32     0  00:51        0.10
  YS02005673           JUNCTION     0.08     0.21    10.57     0  00:51        0.21
  YS02005674           JUNCTION     0.05     0.14    10.03     0  00:51        0.13
  YS02005676           JUNCTION     0.00     0.00    10.24     0  00:00        0.00
  YS02005680           JUNCTION     0.05     0.14    10.24     0  00:52        0.14
  YS02005682           JUNCTION     0.00     0.00    10.06     0  00:00        0.00
  YS02005683           JUNCTION     0.03     0.09     9.98     0  00:51        0.09
  YS02005376           JUNCTION     0.80     1.01    11.10     0  00:31        1.01
  YS02005378           JUNCTION     1.33     1.62    11.14     0  00:45        1.62
  YS02005381           JUNCTION     1.22     1.57    11.20     0  00:31        1.57
  YS02005624           JUNCTION     0.23     0.55    11.43     0  00:51        0.55
  YS02005384           JUNCTION     0.39     0.77    10.42     0  00:31        0.53
  YS02005677           JUNCTION     0.06     0.16    10.23     0  00:51        0.15
  YSB1105              JUNCTION     0.29     1.35    10.83     0  00:53        0.78
  YSB1106              JUNCTION     0.28     1.87    11.71     0  00:50        0.87
  YSB1109              JUNCTION     0.35     1.82    11.76     0  00:50        1.19
  YSB1112              JUNCTION     0.36     1.80    11.94     0  00:49        1.41
  YSB1115              JUNCTION     0.33     1.90    12.20     0  00:49        1.39
  YSB1118              JUNCTION     0.34     1.80    12.34     0  00:49        1.49
  YSB1121              JUNCTION     0.40     1.70    12.37     0  00:49        1.70
  YSB1124              JUNCTION     0.26     1.60    12.43     0  00:49        1.55
  YSB1128              JUNCTION     0.42     1.85    12.43     0  00:45        1.85
  YSB1132              JUNCTION     0.47     1.90    12.35     0  00:45        1.85
  YSB1228              JUNCTION     0.06     0.17    11.02     0  00:51        0.17
  YSB1202              JUNCTION     0.98     1.50    12.39     0  00:40        1.46
  YSB1135              JUNCTION     0.59     2.00    12.26     0  00:45        1.93
  YSB1138              JUNCTION     0.68     1.90    12.07     0  00:45        1.90
  YSB1141              JUNCTION     0.73     2.00    11.83     0  00:45        1.89
  YSB1145              JUNCTION     0.75     2.00    11.69     0  00:45        1.86
  YSB1148              JUNCTION     0.83     2.00    11.50     0  00:45        1.89
  YSB1151              JUNCTION     1.02     2.09    11.31     0  00:45        2.00
  YSB1154              JUNCTION     1.16     2.10    11.16     0  00:45        2.10
  YSB1198              JUNCTION     0.23     1.60    12.39     0  00:46        1.17
  YSB1192              JUNCTION     0.44     1.90    12.17     0  00:45        1.70
  YSB6556              JUNCTION     1.00     1.80    10.97     0  00:45        1.80
  YSB1205              JUNCTION     1.16     1.65    12.35     0  00:40        1.65
  YSB1209              JUNCTION     1.14     1.65    12.22     0  00:48        1.65
  YSB1212              JUNCTION     1.05     1.60    12.13     0  00:48        1.60
  YSB1215              JUNCTION     1.07     1.69    12.04     0  01:05        1.69
  YSB1218              JUNCTION     1.07     1.75    11.94     0  00:48        1.75
  YSB1221              JUNCTION     1.00     1.76    11.72     0  00:53        1.59
  YSB1224              JUNCTION     0.87     1.70    11.55     0  00:53        1.35
  YSB1195              JUNCTION     0.38     1.90    12.28     0  00:45        1.59
  YSB1189              JUNCTION     0.54     1.80    11.96     0  00:45        1.80
  YSB1186              JUNCTION     0.59     1.94    11.81     0  00:45        1.73
  YSB1183              JUNCTION     0.73     2.05    11.64     0  00:45        1.87
  YSB1180              JUNCTION     0.76     1.95    11.46     0  00:45        1.83
  YSB1177              JUNCTION     1.01     2.05    11.24     0  00:45        2.01
  YSB1174              JUNCTION     1.06     1.95    11.06     0  00:49        1.95
  YSB1171              JUNCTION     1.22     1.95    10.85     0  00:44        1.95
  YS02006553           JUNCTION     1.11     2.05     8.33     0  00:48        1.99
  YS02006561           JUNCTION     0.39     1.30     7.96     0  00:48        1.19
  YS02006562           JUNCTION     0.88     1.97     8.48     0  00:48        1.78
  YS02006556           JUNCTION     1.08     2.12     8.43     0  00:48        1.97
  YS02006558           JUNCTION     1.12     2.19     8.46     0  00:48        2.04
  YS6132               JUNCTION     0.54     2.97    10.29     0  00:56        1.79
  YS6137               JUNCTION     0.26     2.45    10.24     0  00:54        1.07
  YS6189               JUNCTION     0.36     2.50    10.29     0  00:54        1.22
  YS6184               JUNCTION     0.35     2.12    10.01     0  00:54        1.30
  YS6179               JUNCTION     0.29     2.60    10.58     0  00:51        1.30
  YS6176               JUNCTION     0.21     1.87    10.07     0  00:54        1.15
  YS6171               JUNCTION     0.22     1.49     9.90     0  00:52        1.13
  YS6168               JUNCTION     0.24     1.69    10.20     0  00:52        1.00
  YS6164               JUNCTION     0.06     0.76     9.49     0  00:53        0.74
  YS6162               JUNCTION     0.11     2.02    10.67     0  00:52        0.82
  YS6187               JUNCTION     0.40     2.50    10.28     0  00:54        1.27
  YS6363               JUNCTION     0.32     2.62    10.41     0  00:54        1.14
  YS6360               JUNCTION     0.43     2.83    10.63     0  00:54        1.38
  YS6354               JUNCTION     0.41     2.60    10.75     0  00:54        1.82
  YS6351               JUNCTION     0.49     2.50    10.71     0  00:54        2.17
  YS6350               JUNCTION     0.55     2.50    10.72     0  00:51        2.37
  YS6348               JUNCTION     0.51     2.45    10.85     0  00:49        2.45
  YS6344               JUNCTION     0.32     2.28    10.88     0  00:49        2.26
  YS6375               JUNCTION     0.09     0.32     8.75     0  00:51        0.32
  YS6377               JUNCTION     0.16     0.39     8.75     0  00:52        0.39
  YS6381               JUNCTION     0.17     0.44     8.57     0  00:52        0.44
  YS6386               JUNCTION     0.20     0.52     8.50     0  00:52        0.52
  YS6390               JUNCTION     0.42     0.64     8.33     0  00:52        0.64
  YS6394               JUNCTION     0.11     0.26     8.18     0  00:52        0.26
  YS6404               JUNCTION     0.51     3.00    10.23     0  00:51        1.22
  YS6401               JUNCTION     0.17     0.41     7.63     0  00:54        0.40
  YS02004319           JUNCTION     0.30     1.18    20.80     0  00:46        1.18
  YS02004320           JUNCTION     0.00     0.00    22.64     0  01:01        0.00
  YS02004321           JUNCTION     0.00     0.00    26.80     0  00:59        0.00
  YS02004307           JUNCTION     0.16     0.52    11.05     0  00:52        0.52
  YS02004309           JUNCTION     0.77     1.55    13.07     0  00:38        1.55
  YS02004312           JUNCTION     0.48     1.48    14.91     0  00:44        1.48
  YS02004314           JUNCTION     0.35     1.28    16.99     0  00:46        1.28
  YS02004316           JUNCTION     0.35     1.36    19.13     0  00:46        1.36
  YS02001783           JUNCTION     0.61     1.53     7.67     0  00:48        1.37
  YS02001784           JUNCTION     0.59     1.31     7.38     0  00:48        1.17
  YS02001786           JUNCTION     0.48     1.05     7.08     0  00:48        0.88
  YS02001788           JUNCTION     0.35     0.63     6.60     0  00:50        0.62
  YS02001790           JUNCTION     0.41     0.72     6.36     0  01:00        0.72
  YS02001791           JUNCTION     0.25     0.44     5.91     0  01:00        0.43
  YS02001793           JUNCTION     0.13     0.31     5.14     0  00:48        0.29
  YS02003309           JUNCTION     0.63     1.21     9.77     0  00:31        1.05
  YS02003306           JUNCTION     0.74     1.16     9.60     0  00:31        1.16
  YS02003269           JUNCTION     0.14     0.17     7.76     0  00:47        0.17
  YS02003272           JUNCTION     0.38     0.94     8.67     0  00:32        0.58
  YS02003278           JUNCTION     0.75     1.21     9.13     0  00:48        1.21
  YS02003281           JUNCTION     0.84     1.39     9.47     0  00:46        1.39
  YS02003284           JUNCTION     0.92     1.40     9.41     0  00:46        1.40
  YS02003287           JUNCTION     0.88     1.27     9.34     0  00:32        1.27
  YS02003290           JUNCTION     0.74     1.11     9.40     0  00:55        1.11
  YS02003294           JUNCTION     0.90     1.24     9.42     0  00:32        1.24
  YS02003275           JUNCTION     0.56     0.93     8.84     0  00:32        0.91
  YS02003297           JUNCTION     0.88     1.22     9.43     0  00:32        1.22
  YS02003300           JUNCTION     0.82     1.15     9.42     0  00:31        1.15
  YS02003303           JUNCTION     0.80     1.14     9.46     0  00:31        1.14
  YSB1227              JUNCTION     0.01     0.12    11.02     0  00:51        0.11
  CaochengRainPumpOutfall1 OUTFALL      0.00     0.00     6.00     0  00:00        0.00
  JiankangRainPumpOutfall2 OUTFALL      0.00     0.00     6.00     0  00:00        0.00
  JiankangRainPumpOutfall1 OUTFALL      0.00     0.00     6.00     0  00:00        0.00
  CaochengRainPumpOutfall2 OUTFALL      0.00     0.00     6.00     0  00:00        0.00
  YS02005684           OUTFALL      0.03     0.09     8.49     0  00:51        0.09
  YS02005681           OUTFALL      0.05     0.14     9.36     0  00:52        0.14
  YS02005678           OUTFALL      0.06     0.15     8.69     0  00:51        0.15
  YS02005675           OUTFALL      0.05     0.14     8.67     0  00:51        0.13
  YS02005672           OUTFALL      0.04     0.10     8.43     0  00:51        0.10
  YS02005669           OUTFALL      0.05     0.12     8.83     0  00:51        0.12
  YS02005666           OUTFALL      0.05     0.12     8.80     0  00:52        0.12
  YS02005663           OUTFALL      0.05     0.14     8.87     0  00:52        0.14
  YS02005660           OUTFALL      0.06     0.15     8.97     0  00:52        0.15
  YS02005657           OUTFALL      0.00     0.00     8.74     0  00:00        0.00
  YS02005652           OUTFALL      0.07     0.18     8.81     0  00:52        0.18
  YS02005649           OUTFALL      0.09     0.23     8.93     0  00:50        0.23
  YS02005646           OUTFALL      0.07     0.19     8.19     0  00:52        0.19
  YS02005643           OUTFALL      0.08     0.21     8.77     0  00:52        0.21
  YS02005641           OUTFALL      0.06     0.17     8.86     0  00:52        0.17
  YS02005638           OUTFALL      0.06     0.17     8.83     0  00:52        0.17
  YS02005635           OUTFALL      0.05     0.14     8.81     0  00:52        0.14
  YS02005632           OUTFALL      0.05     0.13     8.69     0  00:52        0.13
  YS02005629           OUTFALL      0.04     0.11     8.59     0  00:51        0.11
  YS02005626           OUTFALL      0.04     0.11     8.63     0  00:51        0.11
  YS02005623           OUTFALL      0.04     0.12     8.59     0  00:51        0.12
  YS02005620           OUTFALL      0.05     0.15     8.94     0  00:51        0.15
  YS02005617           OUTFALL      0.05     0.13     8.96     0  00:51        0.12
  YSB1103              OUTFALL      0.29     0.60     8.60     0  00:50        0.60
  YSB1229              OUTFALL      0.06     0.17     8.97     0  00:51        0.17
  YS02005548           OUTFALL      0.06     0.16     9.16     0  00:51        0.16
  YS02005552           OUTFALL      0.06     0.15     8.78     0  00:52        0.15
  YS02005555           OUTFALL      0.07     0.15     8.88     0  00:53        0.15
  YS02005558           OUTFALL      0.07     0.15     8.85     0  00:53        0.15
  YS02005561           OUTFALL      0.08     0.17     8.85     0  00:53        0.17
  YS02005564           OUTFALL      0.07     0.15     8.62     0  00:53        0.14
  YS02005567           OUTFALL      0.09     0.19     8.73     0  00:53        0.19
  YS02005570           OUTFALL      0.11     0.22     8.94     0  00:53        0.22
[...]
  WS02003086WS02003085        1.69      1.69      1.74      1.80         0.01
  WS02003085WS02003084        1.70      1.70      1.70      1.71         1.69
  WS02003084WS02003083        1.69      1.71      1.69      1.89         1.69
  WS02003083WS02003082        1.68      1.68      1.72      1.79         0.01
  WS02003082WS02003081        1.67      1.68      1.67      1.78         1.67
  WS02003081WS02003080        1.67      1.67      1.67      1.68         1.67
  WS02003080WS02003077        0.59      0.59      1.67      1.68         0.01
  WS02003073WS02003076        0.70      0.70      1.44      0.21         0.01
  HS02004901HS02004770        0.75      0.75      0.76      0.05         0.01
  HS02004876HS02004881        0.74      0.76      0.74      1.61         0.74
  HS02004870HS02004876        0.67      0.67      0.76      0.01         0.01
  HS02004049HS02004052        0.12      0.12      0.15      0.01         0.01
  HS02004048HS02004049        0.22      0.33      0.22      0.40         0.22
  HS02004046HS02004048        0.14      0.14      0.33      0.01         0.01
  HS02004043HS02004046        0.11      0.11      0.16      0.01         0.01
  HS02004041HS02004043        0.01      0.01      0.10      0.01         0.01
  HS02004028HS02004027        0.01      0.14      0.01      0.15         0.01
  HS02003143HS02003065        0.56      0.56      0.79      0.01         0.01
  HS02004842HS02004848        0.58      0.58      0.81      0.01         0.01
  HS02004837HS02004842        0.62      0.62      0.81      0.01         0.01
  HS02004830HS02004837        0.62      0.62      0.68      0.01         0.01
  HS02004824HS02004830        0.68      0.68      0.73      0.01         0.01
  HS02004817HS02004824        0.73      0.73      1.55      0.01         0.01
  HS02004770HS02004777        0.75      0.75      0.76      0.01         0.01
  HS02004799HS02004480        0.93      0.93      1.04      1.07         0.01
  HS02004792HS02004799        0.87      0.87      1.04      0.01         0.01
  HS02004788HS02004792        0.69      0.69      0.87      0.01         0.01
  HS02004785HS02004788        0.69      0.71      0.69      1.54         0.59
  HS02004777HS02004785        0.71      0.71      0.76      0.01         0.01
  HS02004480HS02004478        0.85      0.93      0.85      1.70         0.85
  HS02004479HS02004480        0.94      0.94      0.98      0.01         0.01
  HS02003013HS02003010        0.30      0.30      0.34      0.18         0.18
  HS02003010HS02003007        0.28      0.29      0.30      0.33         0.28
  HS02003007HS02003004        0.30      0.30      0.39      0.15         0.15
  HS02003004HS02003001        0.01      0.39      0.01      1.09         0.01
  HS02003065HS02003056        0.78      0.78      0.95      0.01         0.01
  HS02003042HS02003053        0.25      0.25      0.72      0.01         0.01
  HS02003028HS02003021        0.18      0.18      0.24      0.01         0.01
  HS02003021HS02003018        0.27      0.27      0.28      0.06         0.07
  HS02003018HS02003017        0.29      0.29      0.29      0.07         0.06
  HS02003017HS02003013        0.29      0.29      0.30      0.23         0.21
  HS02004862HS02004870        0.64      0.64      0.67      0.26         0.24
  HS02004848HS02004852        0.58      0.58      0.61      0.03         0.01
  HS02004856HS02004862        0.59      0.59      0.64      0.01         0.01
  HS02004852HS02004856        0.61      0.61      0.64      0.02         0.01
  HS02004024HS02004022        0.01      0.01      0.18      0.01         0.01
  HS02004022HS02004021        0.18      0.18      0.28      0.01         0.01
  HS02004021HS02004019        0.28      0.28      0.38      0.21         0.21
  HS02004019HS02003162        0.01      0.38      0.01      0.41         0.01
  HS02004052HS02004053        0.14      0.15      0.14      0.16         0.14
  HS02003122HS02003125        1.47      1.47      1.47      0.15         0.18
  HS02003119HS02003122        1.46      1.46      1.47      0.01         0.01
  HS02003116HS02003119        1.27      1.27      1.46      0.01         0.01
  HS02003111HS02003116        0.01      0.01      1.35      0.01         0.01
  HS02004018HS02004019        0.22      0.22      0.38      0.01         0.01
  HS02003056HS02003136        0.80      0.80      1.49      0.01         0.01
  HS02004017HS02004018        0.21      0.21      0.22      0.01         0.01
  HS02004013HS02004017        0.01      0.01      0.21      0.05         0.01
  HS02004802HS02004478        0.86      0.86      0.94      0.16         0.01
  HS02004478WS02006287        0.70      0.70      0.92      0.01         0.01
  HS02003148HS02003145        0.01      0.01      0.10      0.01         0.01
  HS02003145HS02003143        0.10      0.10      0.53      0.10         0.08
  HS02003136WS02003203        1.50      1.50      1.62      0.01         0.01
  HS02003084HS02003088        0.01      0.01      0.04      0.01         0.01
  HS02003108HS02003111        0.14      0.14      0.37      0.01         0.01
  HS02003100HS02003108        0.07      0.07      0.14      0.01         0.01
  HS02003088HS02003100        0.05      0.05      0.07      0.01         0.01
  HS02004817HS02004807        0.91      0.91      1.55      0.01         0.01
  HS02004807HS02004802        0.91      0.91      0.93      0.31         0.32
  HS02003053HS02003056        0.72      0.72      0.95      0.01         0.01
  HS02003039HS02003042        0.31      0.32      0.35      0.17         0.02
  HS02003036HS02003039        0.13      0.13      0.18      0.01         0.01
  YS02001759YS02001757        0.05      0.06      0.05      0.13         0.05
  YS02001762YS02001759        0.06      0.07      0.06      0.12         0.06
  YS02001765YS02001762        0.06      0.06      0.07      0.04         0.02
  YS02001770YS02001767        0.06      0.09      0.06      0.58         0.06
  YS02001774YS02001770        0.08      0.08      0.11      0.01         0.01
  YS02001779YS02001774        0.05      0.05      0.11      0.01         0.01
  YS02001767YS02001765        0.06      0.06      0.06      0.14         0.06
  YS02006561YS02001783        0.39      0.39      0.59      0.01         0.01
  YS02001783YS02001784        0.56      0.59      0.56      0.76         0.56
  YS02001784YS02001785        0.46      0.56      0.46      1.15         0.46
  YS02001790YS02001791        0.01      0.01      0.01      0.55         0.01
  YS02001910YS02001907        0.62      0.62      0.84      0.01         0.01
  YS02001786YS02001788        0.01      0.46      0.01      0.93         0.01
  YS02001915YS02001910        0.53      0.53      0.62      0.01         0.01
  YS02001918YS02001915        0.44      0.44      0.53      0.01         0.01
  YS02001923YS02001920        0.37      0.37      0.46      0.01         0.01
  YS02001926YS02001923        0.13      0.13      0.14      0.01         0.01
  YS02001929YS02001926        0.02      0.02      0.14      0.01         0.01
  YS02001932YS02001929        0.01      0.01      0.02      0.01         0.01
  YS02001935YS02001932        0.01      0.01      0.01      0.01         0.01
  YS02001920YS02001918        0.44      0.44      0.46      0.01         0.01
  YS02003290YS02003287        1.54      1.54      1.61      0.01         0.01
  YS02003294YS02003290        1.54      1.54      1.66      0.07         0.01
  YS02003297YS02003294        1.64      1.64      1.65      0.20         0.26
  YS02003275YS02003272        1.25      1.43      1.25      1.58         1.25
  YS02003300YS02003297        1.55      1.55      1.61      0.01         0.01
  YS02003303YS02003300        1.53      1.53      1.57      0.01         0.01
  YS02005550YS02005551        0.01      0.07      0.01      0.12         0.01
  YS02005568YS02005569        0.01      0.16      0.01      0.29         0.01
  YS02005582YS02005583        0.37      0.62      0.37      0.86         0.37
  YS02003272YS02003269        0.01      1.35      0.01      1.58         0.01
  YS02003278YS02003275        1.50      1.63      1.50      1.74         1.50
  YS02003281YS02003278        1.58      1.58      1.62      1.48         1.48
  YS02003284YS02003281        1.58      1.58      1.62      1.04         0.28
  YS02003287YS02003284        1.60      1.60      1.64      0.01         0.06
  YS02003306YS02003303        1.49      1.49      1.55      0.41         0.41
  YS02003309YS02003306        1.33      1.33      1.49      0.01         0.01
  YS02005600YS02005375        0.16      0.16      0.18      0.18         0.16
  YS02005384YS02005593        0.01      1.50      0.01      1.54         0.01
  YS02005595YS02005596        0.27      0.28      0.27      0.30         0.27
  YS02005612YS02005613        0.11      0.11      1.14      0.32         0.01
  YS02005549YS02005547        0.01      0.01      0.01      0.01         0.01
  YS02005553YS02005554        0.01      0.11      0.01      0.26         0.01
  YS02005556YS02005557        0.01      0.01      0.01      0.31         0.01
  YS02005562YS02005563        0.01      0.01      0.01      0.24         0.01
  YS02005571YS02005572        0.01      0.29      0.01      0.45         0.01
  YS02005572YS02005574        0.01      0.01      0.01      0.09         0.01
  YS02005576YS02005577        0.01      0.09      0.01      0.17         0.01
  YS02005579YS02005580        0.29      0.49      0.29      0.69         0.29
  YS02005580YS02005581        0.27      0.29      0.27      0.31         0.27
  YS02005583YS02005584        0.37      0.37      0.39      0.39         0.37
  YS02006553YS02006556        0.73      0.73      0.88      0.01         0.01
  YS02006556YS02006558        0.80      0.80      0.92      0.01         0.01
  YSB6556YSB1171              1.09      1.09      1.63      0.01         0.01
  YSB1202YSB1205              1.36      1.36      1.38      0.01         0.01
  YSB1205YSB1209              1.38      1.38      1.38      0.80         0.74
  YSB1209YSB1212              1.36      1.38      1.36      1.50         1.35
  YSB1212YSB1215              1.36      1.36      1.36      0.57         0.56
  YSB1215YSB1218              1.36      1.36      1.36      0.63         0.62
  YSB1218YSB1221              1.35      1.35      1.36      1.34         1.34
  YSB1221YSB1224              1.36      1.36      1.37      1.35         1.36
  YSB1224YSB1105              1.16      1.41      1.16      1.51         1.16
  YSB1189YSB1186              0.62      0.62      0.74      0.20         0.20
  YS02001907YS02006553        1.16      1.16      1.28      0.01         0.01
  YS02006562YS02006558        0.59      0.59      0.92      0.01         0.01
  YS02006558YS02006561        0.48      0.72      0.48      1.08         0.48
  YS6184YS6187                0.10      0.10      0.12      0.01         0.03
  YS6360YS6363                0.08      0.13      0.08      0.69         0.07
  YS6354YS6360                0.17      0.18      0.17      0.18         0.16
  YS6351YS6354                0.18      0.20      0.18      0.39         0.18
  YS6350YS6351                0.20      0.22      0.20      0.72         0.20
  YS6348YS6350                0.21      0.21      0.22      0.19         0.18
  YS6344YS6348                0.21      0.21      0.27      0.01         0.01
  YS6363YS6132                0.07      0.07      0.22      0.01         0.01
  YS6137YS6132                0.14      0.14      0.32      0.01         0.01
  YS6189YS6137                0.14      0.14      0.16      1.53         0.01
  YS6187YS6189                0.10      0.10      0.12      0.23         0.01
  YS6179YS6184                0.08      0.08      0.10      0.01         0.01
  YS6176YS6179                0.01      0.01      0.08      0.01         0.01
  YS6171YS6176                0.04      0.04      0.08      0.01         0.01
  YS6168YS6171                0.04      0.04      0.04      0.01         0.01
  YS6164YS6168                0.01      0.01      0.04      0.01         0.01
  YS6162YS6164                0.04      0.04      0.05      0.01         0.01
  YS6132YS6404                0.01      0.13      0.01      0.25         0.01
  YSB1106YSB1105              0.07      0.18      0.07      0.23         0.07
  YSB1109YSB1106              0.18      0.24      0.18      0.38         0.18
  YSB1112YSB1109              0.24      0.25      0.24      0.28         0.24
  YSB1115YSB1112              0.22      0.22      0.25      0.05         0.05
  YSB1118YSB1115              0.25      0.25      0.25      0.25         0.24
  YSB1121YSB1118              0.25      0.28      0.25      0.37         0.25
  YSB1124YSB1121              0.24      0.24      0.28      0.01         0.01
  YSB1105YSB1103              0.12      0.12      0.17      0.17         0.12
  YS02001754YS02001757        0.01      0.01      0.05      0.01         0.01
  YS02001882YS02001884        0.53      0.53      0.54      0.01         0.01
  YS02001884YS02001887        0.56      0.56      0.58      0.01         0.01
  YS02001890YS02001895        0.52      0.52      0.63      0.01         0.01
  YS02001895YS02001898        0.51      0.51      0.52      0.01         0.01
  YS02001898YS02001901        0.52      0.52      0.56      0.01         0.01
  YS02001901YS02001904        0.55      0.55      0.56      0.01         0.01
  YS02001904YS02001907        0.55      0.55      0.89      0.01         0.01
  YS02001887YS02001890        0.59      0.59      0.61      0.10         0.01
  YS02004309YS02004307        0.11      0.96      0.11      0.93         0.11
  YS02004319YS02004316        0.31      0.31      0.33      0.01         0.01
  YS02005376YS02005378        1.63      1.63      1.84      0.01         0.01
  YS02005378YS02005381        1.81      1.81      1.84      0.29         0.01
  YS02005381YS02005384        1.51      1.51      1.81      1.83         0.01
  YS02005598YS02005374        0.19      0.19      0.20      0.20         0.19
  YS02005602YS02005603        0.14      0.42      0.14      0.54         0.14
  YS02005603YS02005607        0.14      0.14      0.16      0.16         0.14
  YS02005618YS02005619        0.01      0.01      0.01      0.03         0.01
  YS02005621YS02005622        0.01      0.02      0.01      0.08         0.01
  YS02005624YS02005625        0.01      0.01      0.28      0.05         0.01
  YS02005630YS02005631        0.01      0.05      0.01      0.09         0.01
  YS02005633YS02005634        0.01      0.04      0.01      0.07         0.01
  YS02005636YS02005637        0.01      0.09      0.01      0.13         0.01
  YS02005639YS02005640        0.01      0.07      0.01      0.10         0.01
  YS02005627YS02005628        0.01      0.05      0.01      0.27         0.01
  YS02005644YS02005645        0.01      0.08      0.01      0.11         0.01
  YS02005650YS02005651        0.01      0.12      0.01      0.21         0.01
  YS02005653YS02005654        0.11      0.11      0.12      0.11         0.10
  YS02005654YS02005655        0.01      0.12      0.01      0.20         0.01
  YS02005658YS02005659        0.01      0.06      0.01      0.10         0.01
  YS02005661YS02005662        0.01      0.11      0.01      0.22         0.01
  YS02005664YS02005665        0.01      0.10      0.01      0.47         0.01
  YS02005667YS02005668        0.01      0.01      0.43      0.06         0.01
  YS02005647YS02005648        0.01      0.27      0.01      0.41         0.01
  YS02004312YS02004309        0.58      0.58      0.96      0.01         0.01
  YS02004314YS02004312        0.36      0.36      0.58      0.01         0.01
  YS02004316YS02004314        0.33      0.33      0.36      0.27         0.27
  YS02004320YS02004319        0.01      0.01      0.24      0.01         0.01
  YS6404YS6401                0.01      0.01      0.01      0.66         0.01
  YSB1132YSB1135              0.59      0.59      0.65      0.01         0.01
  YSB1135YSB1138              0.65      0.65      0.68      0.01         0.01
  YSB1138YSB1141              0.68      0.68      0.79      0.34         0.34
  YSB1141YSB1145              0.76      0.76      0.80      0.32         0.31
  YSB1148YSB1151              0.90      0.90      1.24      0.01         0.01
  YSB1151YSB1154              1.02      1.02      1.48      0.01         0.01
  YSB1154YSB6556              1.09      1.09      1.48      0.35         0.01
  YSB1128YSB1132              0.56      0.56      0.59      0.01         0.01
  YSB1145YSB1148              0.80      0.80      0.90      0.01         0.01
  YSB1198YSB1195              0.31      0.31      0.55      0.01         0.01
  YSB1195YSB1192              0.55      0.55      0.59      0.01         0.01
  YSB1192YSB1189              0.59      0.59      0.62      0.01         0.01
  YSB1186YSB1183              0.68      0.68      0.81      0.01         0.01
  YSB1183YSB1180              0.81      0.81      0.86      0.24         0.25
  YSB1180YSB1177              0.86      0.86      1.31      0.01         0.01
  YSB1177YSB1174              1.31      1.31      1.52      0.25         0.26
  YSB1174YSB1171              1.25      1.25      1.58      0.14         0.14
  YSB1171HS02004479           0.90      0.90      1.44      0.01         0.01
  YS02004307HS02004052        0.01      0.01      0.15      0.01         0.01
  HS02004881HS02006253        0.74      0.74      1.53      0.01         0.01
  WS0200404049WS6136          0.13      0.13      0.22      0.01         0.01
  HS02003125WS02003215        1.47      1.47      1.50      0.01         0.01
  YS02001793JiankangQianchi        0.01      0.01      2.02      0.01         0.01
  YS02001757CaochengTiaoxuchi        0.05      0.05      0.64      0.05         0.04
  WS02004041WS6409            1.20      1.20      1.31      1.30         1.20
  WSF200WS02003060            0.21      0.21      0.50      0.01         0.01
  HS02004053WS02004407        0.14      0.14      1.22      0.01         0.01
  HS02003036HS02003028        0.13      0.13      0.23      0.01         0.01
  
  
  ***************
  Pumping Summary
  ***************
  
  ---------------------------------------------------------------------------------------------------------
                                                  Min       Avg       Max     Total     Power    % Time Off
                        Percent   Number of      Flow      Flow      Flow    Volume     Usage    Pump Curve
  Pump                 Utilized   Start-Ups       LPS       LPS       LPS  10^6 ltr     Kw-hr    Low   High
  ---------------------------------------------------------------------------------------------------------
  CaochengSewagePump1     90.91           1      0.00    200.00    200.00     1.331     10.31    0.0    0.0
  CaochengSewagePump2     55.74           1      0.00    200.00    200.00     0.816      6.67    0.0    0.0
  CaochengRainPump1       51.67           1      0.00    683.00    683.00     2.584      3.40    0.0   46.7
  CaochengRainPump2        0.00           0      0.00      0.00      0.00     0.000      0.00    0.0    0.0
  JiankangSewagePump      73.20           1      0.00    300.00    300.00     1.608     25.16    0.0    0.0
  JiankangRainPump1       34.61           5      0.00   1000.00   1000.00     2.534     16.63    0.0    0.0
  JiankangRainPump2        0.00           0      0.00      0.00      0.00     0.000      0.00    0.0    0.0
  XierchiSewagePump1      91.80           1      0.00     95.00     95.00     0.639      3.95    0.0    0.0
  XierchiSewagePump2      76.19           1      0.00     95.00     95.00     0.530      3.11    0.0    0.0
  XierchiSewagePump3       0.00           0      0.00      0.00      0.00     0.000      0.00    0.0    0.0
  XierchiSewagePump4       0.00           0      0.00      0.00      0.00     0.000      0.00    0.0    0.0
  

  Analysis begun on:  Sat Nov 19 23:12:25 2022
  Analysis ended on:  Sat Nov 19 23:43:54 2022
  Total elapsed time: 00:31:29