
  EPA STORM WATER MANAGEMENT MODEL - VERSION 5.1 (Build 5.3.0.dev0)
  --------------------------------------------------------------

  WARNING 04: minimum elevation drop used for Conduit WS02004404WS02004405
  WARNING 03: negative offset ignored for Link YS02001904YS02001907
  
  *********************************************************
  NOTE: The summary statistics displayed in this report are
  based on results found at every computational time step,  
  not just on results from each reporting time step.
  *********************************************************
  
  ****************
  Analysis Options
  ****************
  Flow Units ............... LPS
  Process Models:
    Rainfall/Runoff ........ YES
    RDII ................... NO
    Snowmelt ............... NO
    Groundwater ............ NO
    Flow Routing ........... YES
    Ponding Allowed ........ NO
    Water Quality .......... NO
  Infiltration Method ...... HORTON
  Flow Routing Method ...... DYNWAVE
  Surcharge Method ......... EXTRAN
  Starting Date ............ 03/31/2017 00:00:00
  Ending Date .............. 03/31/2017 03:00:00
  Antecedent Dry Days ...... 8.0
  Report Time Step ......... 00:00:30
  Wet Time Step ............ 00:01:00
  Dry Time Step ............ 00:01:00
  Routing Time Step ........ 30.00 sec
  Variable Time Step ....... YES
  Maximum Trials ........... 8
  Number of Threads ........ 6
  Head Tolerance ........... 0.001500 m
  
  
  **************************        Volume         Depth
  Runoff Quantity Continuity     hectare-m            mm
  **************************     ---------       -------
  Initial LID Storage ......         0.284         2.409
  Total Precipitation ......        11.461        97.262
  Evaporation Loss .........         0.000         0.000
  Infiltration Loss ........         0.306         2.601
  Surface Runoff ...........         9.461        80.289
  Final Storage ............         1.991        16.893
  Continuity Error (%) .....        -0.112
  
  
  **************************        Volume        Volume
  Flow Routing Continuity        hectare-m      10^6 ltr
  **************************     ---------     ---------
  Dry Weather Inflow .......         0.171         1.707
  Wet Weather Inflow .......         9.434        94.339
  Groundwater Inflow .......         0.000         0.000
  RDII Inflow ..............         0.000         0.000
  External Inflow ..........         0.033         0.333
  External Outflow .........         5.045        50.448
  Flooding Loss ............         4.353        43.534
  Evaporation Loss .........         0.000         0.000
  Exfiltration Loss ........         0.000         0.000
  Initial Stored Volume ....         0.303         3.031
  Final Stored Volume ......         0.573         5.726
  Continuity Error (%) .....        -0.301
  
  
  *************************
  Highest Continuity Errors
  *************************
  Node WS02005193 (57.92%)
  Node YS02001884 (27.37%)
  Node YS02004320 (6.47%)
  Node YS6162 (5.06%)
  Node WS02003059 (4.96%)
  
  
  ***************************
  Time-Step Critical Elements
  ***************************
  Link YS02005655YS02005657 (44.61%)
  Link WS02006252WS02006251 (21.66%)
  Link WS02004041WS6409 (15.65%)
  Link WS02003073WS02003076 (1.95%)
  Link WS02006280WS02006229 (1.73%)
  
  
  ********************************
  Highest Flow Instability Indexes
  ********************************
  Link WS02006238WS02006235 (76)
  Link WS02003215WS02003116 (74)
  Link WS02003200WS02003201 (72)
  Link WS02003122WS02003187 (70)
  Link WS02004404WS02004405 (68)
  
  
  *************************
  Routing Time Step Summary
  *************************
  Minimum Time Step           :     0.50 sec
  Average Time Step           :     0.95 sec
  Maximum Time Step           :    30.00 sec
  Percent in Steady State     :     0.00
  Average Iterations per Step :     6.57
  Percent Not Converging      :    41.69
  
  
  ***************************
  Subcatchment Runoff Summary
  ***************************
  
  ------------------------------------------------------------------------------------------------------------------------------
                            Total      Total      Total      Total     Imperv       Perv      Total       Total     Peak  Runoff
                           Precip      Runon       Evap      Infil     Runoff     Runoff     Runoff      Runoff   Runoff   Coeff
  Subcatchment                 mm         mm         mm         mm         mm         mm         mm    10^6 ltr      LPS
  ------------------------------------------------------------------------------------------------------------------------------
  sub0                      97.26       0.00       0.00       0.74      88.10       5.76      93.86        0.08    59.55   0.965
  sub1                      97.26       0.00       0.00       1.26      78.07       8.32      86.39        0.57   384.05   0.888
  sub2                      97.26       0.00       0.00       3.77      51.18      22.91      74.09        0.69   381.44   0.762
  sub3                      97.26       0.00       0.00       3.78      51.48      21.77      73.25        1.65   838.61   0.753
  sub4                      97.26       0.00       0.00       1.18      78.97       8.33      87.30        1.82   980.66   0.898
  sub5                      97.26       0.00       0.00       1.04      74.46       4.88      79.35        0.90   612.14   0.816
  sub6                      97.26       0.00       0.00       0.99      75.97       4.99      80.97        2.09  1343.88   0.832
  sub7                      97.26       0.00       0.00       0.97      84.44       7.24      91.67        0.31   224.60   0.943
  sub8                      97.26       0.00       0.00       0.95      84.86       7.27      92.14        0.59   413.10   0.947
  sub9                      97.26       0.00       0.00       0.95      84.71       7.26      91.97        0.44   308.07   0.946
  sub10                     97.26       0.00       0.00       0.99      79.58       6.01      85.59        0.94   644.19   0.880
  sub11                     97.26       0.00       0.00       0.91      83.25       6.29      89.54        1.04   742.81   0.921
  sub12                     97.26       0.00       0.00       1.61      69.12       8.90      78.03        0.68   528.64   0.802
  sub13                     97.26       0.00       0.00       3.56      60.86      25.40      86.26        1.02   645.43   0.887
  sub14                     97.26       0.00       0.00       1.00      82.72       7.09      89.81        0.86   594.31   0.923
  sub15                     97.26       0.00       0.00       3.12      56.73      19.92      76.65        1.32   847.41   0.788
  sub16                     97.26       0.00       0.00       3.40      55.39      22.70      78.09        0.82   574.33   0.803
  sub17                     97.26       0.00       0.00       3.28      52.20      20.48      72.68        0.62   439.73   0.747
  sub18                     97.26       0.00       0.00       0.98      84.16       7.21      91.37        0.73   541.16   0.939
  sub19                     97.26       0.00       0.00       3.18      50.75      19.02      69.77        0.22   156.24   0.717
  sub20                     97.26       0.00       0.00       1.01      82.52       7.07      89.59        0.63   454.79   0.921
  sub21                     97.26       0.00       0.00       1.35      78.72       9.26      87.98        0.45   336.32   0.905
  sub22                     97.26       0.00       0.00       4.36      48.12      28.75      76.87        4.86  2924.69   0.790
  sub23                     97.26       0.00       0.00       3.75      50.81      24.32      75.13        3.58  2326.88   0.772
  sub24                     97.26       0.00       0.00       1.58      75.15      10.51      85.67        3.07  2290.82   0.881
  sub25                     97.26       0.00       0.00       0.97      78.78       5.15      83.93        1.09   881.10   0.863
  sub26                     97.26       0.00       0.00       2.59      60.07      16.25      76.32        1.09   899.48   0.785
  sub27                     97.26       0.00       0.00       1.06      80.18       6.87      87.06        1.26   871.19   0.895
  sub28                     97.26       0.00       0.00       0.94      81.59       6.17      87.76        1.38   945.49   0.902
  sub29                     97.26       0.00       0.00       1.07      75.35       5.70      81.05        1.31   825.31   0.833
  sub30                     97.26       0.00       0.00       0.97      81.54       6.15      87.69        1.98  1519.99   0.902
  sub31                     97.26       0.00       0.00       1.87      72.69      12.78      85.47        1.81  1413.06   0.879
  sub32                     97.26       0.00       0.00       1.01      79.32       5.99      85.31        1.70  1254.68   0.877
  sub33                     97.26       0.00       0.00       1.46      77.31       9.96      87.27        1.60  1231.66   0.897
  sub34                     97.26       0.00       0.00       4.84      39.14      32.35      71.49        1.60  1110.55   0.735
  sub35                     97.26       0.00       0.00       0.91      84.79       6.39      91.18        0.32   279.37   0.937
  sub36                     97.26       0.00       0.00       2.41      62.19      15.02      77.22        0.67   540.62   0.794
  sub37                     97.26       0.00       0.00       3.92      49.40      26.70      76.10        0.58   450.48   0.782
  sub38                     97.26       0.00       0.00       3.55      51.85      23.76      75.61        1.43  1172.91   0.777
  sub39                     97.26       0.00       0.00       1.00      80.92       6.10      87.02        0.93   767.19   0.895
  sub40                     97.26       0.00       0.00       0.91      84.50       6.37      90.87        1.06   878.50   0.934
  sub41                     97.26       0.00       0.00       1.76      74.73      12.24      86.97        1.67  1323.47   0.894
  sub42                     97.26       0.00       0.00       0.99      84.73       7.26      91.99        0.92   753.27   0.946
  sub43                     97.26       0.00       0.00       3.91      54.32      27.59      81.91        0.67   466.77   0.842
  sub44                     97.26       0.00       0.00       0.93      78.97       5.18      84.14        0.95   665.88   0.865
  sub45                     97.26       0.00       0.00       1.95      66.49      11.62      78.11        1.43  1030.40   0.803
  sub46                     97.26       0.00       0.00       5.88      28.18      38.86      67.04        0.47   293.15   0.689
  sub47                     97.26       0.00       0.00       1.08      76.43       5.77      82.20        0.63   468.51   0.845
  sub48                     97.26       0.00       0.00       0.98      84.12       7.21      91.33        0.70   507.96   0.939
  sub49                     97.26       0.00       0.00       1.03      78.27       5.91      84.18        0.77   547.95   0.866
  sub50                     97.26       0.00       0.00       0.97      80.79       6.10      86.90        0.61   434.28   0.893
  sub51                     97.26       0.00       0.00       0.88      84.81       6.40      91.22        0.43   321.78   0.938
  sub52                     97.26       0.00       0.00       0.93      79.03       5.18      84.21        0.91   645.53   0.866
  sub53                     97.26       0.00       0.00       0.97      81.03       6.12      87.15        0.88   648.72   0.896
  sub54                     97.26       0.00       0.00       0.98      76.72       5.03      81.75        0.49   328.41   0.841
  sub55                     97.26       0.00       0.00       0.90      83.19       6.29      89.48        0.71   485.85   0.920
  sub56                     97.26       0.00       0.00       2.00      74.27      14.47      88.73        1.26   758.84   0.912
  sub57                     97.26       0.00       0.00       3.26      64.22      23.21      87.44        0.57   344.85   0.899
  sub58                     97.26       0.00       0.00       6.59      19.78      39.07      58.85        2.18  1002.40   0.605
  sub59                     97.26       0.00       0.00       6.66      15.74      35.52      51.27        1.17   474.03   0.527
  sub60                     97.26       0.00       0.00       1.30      80.44       9.45      89.89        1.18   849.82   0.924
  sub61                     97.26       0.00       0.00       1.87      72.11      12.61      84.72        1.55  1131.06   0.871
  sub62                     97.26       0.00       0.00       0.96      80.64       6.10      86.74        2.38  1597.92   0.892
  sub67                     97.26       0.00       0.00       1.11      74.88       5.66      80.54        1.50  1042.25   0.828
  sub68                     97.26       0.00       0.00       1.52      77.48      10.80      88.28        2.43  1677.04   0.908
  sub71                     97.26       0.00       0.00       0.88      82.96       6.28      89.24        2.33  1461.32   0.918
  sub72                     97.26       0.00       0.00       0.88      79.21       5.22      84.43        1.16   681.42   0.868
  sub73                     97.26       0.00       0.00       2.25      70.43      16.03      86.47        0.08    67.22   0.889
  sub74                     97.26       0.00       0.00       3.32      58.96      23.47      82.42        0.13   101.69   0.847
  sub75                     97.26       0.00       0.00       3.13      61.13      22.27      83.40        0.18   144.39   0.857
  sub76                     97.26       0.00       0.00       1.93      74.54      14.03      88.58        0.22   169.36   0.911
  sub77                     97.26       0.00       0.00       1.83      75.82      13.35      89.17        0.14   112.96   0.917
  sub78                     97.26       0.00       0.00       1.59      70.30       9.05      79.36        0.22   168.53   0.816
  sub79                     97.26       0.00       0.00       2.55      67.30      18.00      85.29        0.22   162.59   0.877
  sub80                     97.26       0.00       0.00       3.43      59.22      24.58      83.80        0.25   184.73   0.862
  sub81                     97.26       0.00       0.00       3.81      54.98      26.90      81.88        0.25   179.58   0.842
  sub82                     97.26       0.00       0.00       3.79      53.81      26.47      80.28        0.24   177.98   0.825
  sub83                     97.26       0.00       0.00       3.88      52.61      27.09      79.70        0.27   201.08   0.819
  sub84                     97.26       0.00       0.00       3.60      55.56      24.90      80.45        0.44   309.32   0.827
  sub85                     97.26       0.00       0.00       2.53      70.99      18.94      89.92        0.40   289.54   0.925
  sub86                     97.26       0.00       0.00       2.74      66.97      19.86      86.84        0.42   307.25   0.893
  sub87                     97.26       0.00       0.00       3.65      59.52      26.84      86.36        0.26   189.39   0.888
  sub88                     97.26       0.00       0.00       3.55      60.51      26.18      86.69        0.26   195.88   0.891
  sub89                     97.26       0.00       0.00       3.24      62.60      23.85      86.45        0.23   178.22   0.889
  sub90                     97.26       0.00       0.00       2.84      67.55      21.21      88.76        0.22   168.16   0.913
  sub91                     97.26       0.00       0.00       2.84      67.18      21.22      88.40        0.16   130.11   0.909
  sub92                     97.26       0.00       0.00       3.24      62.31      23.92      86.23        0.13   108.77   0.887
  sub93                     97.26       0.00       0.00       3.24      62.93      24.17      87.11        0.16   133.61   0.896
  sub94                     97.26       0.00       0.00       3.25      63.27      24.19      87.46        0.19   152.33   0.899
  sub95                     97.26       0.00       0.00       3.04      63.17      22.03      85.21        0.13   106.17   0.876
  sub96                     97.26       0.00       0.00       2.35      69.64      16.90      86.55        0.16   140.88   0.890
  sub97                     97.26       0.00       0.00       5.66      29.34      39.09      68.43        0.16   135.55   0.704
  sub98                     97.26       0.00       0.00       6.51      20.67      43.94      64.62        0.21   140.43   0.664
  sub99                     97.26       0.00       0.00       6.92      14.93      44.73      59.66        0.21   114.45   0.613
  sub100                    97.26       0.00       0.00       6.91      14.87      43.12      57.99        0.20    99.17   0.596
  sub101                    97.26       0.00       0.00       6.86      14.67      42.45      57.12        0.19    93.50   0.587
  sub102                    97.26       0.00       0.00       6.63      16.73      39.71      56.45        0.17    79.31   0.580
  sub103                    97.26       0.00       0.00       6.86      15.63      40.69      56.32        0.27   118.57   0.579
  sub104                    97.26       0.00       0.00       6.80      15.40      39.86      55.26        0.29   127.06   0.568
  sub105                    97.26       0.00       0.00       8.52      18.04      52.83      70.87        0.40   157.92   0.729
  sub106                    97.26       0.00       0.00       6.89      14.75      41.75      56.50        0.29   132.88   0.581
  sub107                    97.26       0.00       0.00       7.01      13.26      43.62      56.89        0.40   194.82   0.585
  sub108                    97.26       0.00       0.00       7.08      12.59      45.88      58.47        0.54   299.14   0.601
  sub109                    97.26       0.00       0.00       5.50      23.35      34.00      57.35        0.82   533.15   0.590
  sub110                    97.26       0.00       0.00       2.01      68.54      12.87      81.41        1.71  1298.16   0.837
  sub111                    97.26       0.00       0.00       2.76      60.23      17.93      78.16        0.67   505.33   0.804
  sub112                    97.26       0.00       0.00       2.27      68.10      15.44      83.54        0.66   503.20   0.859
  sub113                    97.26       0.00       0.00       1.51      78.90      11.05      89.95        0.62   475.53   0.925
  sub114                    97.26       0.00       0.00       1.40      80.22      10.33      90.55        0.60   460.00   0.931
  sub115                    97.26       0.00       0.00       1.32      79.94       9.41      89.35        0.66   502.34   0.919
  sub116                    97.26       0.00       0.00       3.98      47.01      25.90      72.91        0.14    94.13   0.750
  sub117                    97.26       0.00       0.00       4.04      45.45      26.26      71.71        0.33   234.70   0.737
  

  ***********************
  LID Performance Summary
  ***********************

  --------------------------------------------------------------------------------------------------------------------
                                         Total      Evap     Infil   Surface    Drain    Initial     Final  Continuity
                                        Inflow      Loss      Loss   Outflow   Outflow   Storage   Storage       Error
  Subcatchment      LID Control             mm        mm        mm        mm        mm        mm        mm           %
  --------------------------------------------------------------------------------------------------------------------
  sub1              BioRententionCell     97.26      0.00      2.89      0.00      0.00     23.50    117.94       -0.05
  sub2              BioRententionCell     97.26      0.00      2.89      0.00      0.00     23.50    117.94       -0.05
  sub3              BioRententionCell     97.26      0.00      2.89      0.00      0.00     23.50    117.94       -0.05
  sub4              BioRententionCell     97.26      0.00      2.89      0.00      0.00     23.50    117.94       -0.05
  sub5              BioRententionCell     97.26      0.00      2.89      0.00      0.00     23.50    117.94       -0.05
  sub6              BioRententionCell     97.26      0.00      2.89      0.00      0.00     23.50    117.94       -0.05
  sub7              BioRententionCell     97.26      0.00      2.89      0.00      0.00     23.50    117.94       -0.05
  sub8              BioRententionCell     97.26      0.00      2.89      0.00      0.00     23.50    117.94       -0.05
  sub9              BioRententionCell     97.26      0.00      2.89      0.00      0.00     23.50    117.94       -0.05
  sub10             BioRententionCell     97.26      0.00      2.89      0.00      0.00     23.50    117.94       -0.05
  sub11             BioRententionCell     97.26      0.00      2.89      0.00      0.00     23.50    117.94       -0.05
  sub12             BioRententionCell     97.26      0.00      2.89      0.00      0.00     23.50    117.94       -0.05
  sub13             BioRententionCell     97.26      0.00      2.89      0.00      0.00     23.50    117.94       -0.05
  sub14             BioRententionCell     97.26      0.00      2.89      0.00      0.00     23.50    117.94       -0.05
  sub15             BioRententionCell     97.26      0.00      2.89      0.00      0.00     23.50    117.94       -0.05
  sub16             BioRententionCell     97.26      0.00      2.89      0.00      0.00     23.50    117.94       -0.05
  sub17             BioRententionCell     97.26      0.00      2.89      0.00      0.00     23.50    117.94       -0.05
  sub18             BioRententionCell     97.26      0.00      2.89      0.00      0.00     23.50    117.94       -0.05
  sub19             BioRententionCell     97.26      0.00      2.89      0.00      0.00     23.50    117.94       -0.05
  sub20             BioRententionCell     97.26      0.00      2.89      0.00      0.00     23.50    117.94       -0.05
  sub21             BioRententionCell     97.26      0.00      2.89      0.00      0.00     23.50    117.94       -0.05
  sub22             BioRententionCell     97.26      0.00      2.89      0.00      0.00     23.50    117.94       -0.05
  sub23             BioRententionCell     97.26      0.00      2.89      0.00      0.00     23.50    117.94       -0.05
  sub24             BioRententionCell     97.26      0.00      2.89      0.00      0.00     23.50    117.94       -0.05
  sub25             BioRententionCell     97.26      0.00      2.89      0.00      0.00     23.50    117.94       -0.05
  sub26             BioRententionCell     97.26      0.00      2.89      0.00      0.00     23.50    117.94       -0.05
  sub27             BioRententionCell     97.26      0.00      2.89      0.00      0.00     23.50    117.94       -0.05
  sub28             BioRententionCell     97.26      0.00      2.89      0.00      0.00     23.50    117.94       -0.05
  sub29             BioRententionCell     97.26      0.00      2.89      0.00      0.00     23.50    117.94       -0.05
  sub30             BioRententionCell     97.26      0.00      2.89      0.00      0.00     23.50    117.94       -0.05
  sub31             BioRententionCell     97.26      0.00      2.89      0.00      0.00     23.50    117.94       -0.05
  sub32             BioRententionCell     97.26      0.00      2.89      0.00      0.00     23.50    117.94       -0.05
  sub33             BioRententionCell     97.26      0.00      2.89      0.00      0.00     23.50    117.94       -0.05
  sub34             BioRententionCell     97.26      0.00      2.89      0.00      0.00     23.50    117.94       -0.05
  sub35             BioRententionCell     97.26      0.00      2.89      0.00      0.00     23.50    117.94       -0.05
  sub36             BioRententionCell     97.26      0.00      2.89      0.00      0.00     23.50    117.94       -0.05
  sub37             BioRententionCell     97.26      0.00      2.89      0.00      0.00     23.50    117.94       -0.05
  sub38             BioRententionCell     97.26      0.00      2.89      0.00      0.00     23.50    117.94       -0.05
  sub39             BioRententionCell     97.26      0.00      2.89      0.00      0.00     23.50    117.94       -0.05
  sub40             BioRententionCell     97.26      0.00      2.89      0.00      0.00     23.50    117.94       -0.05
  sub41             BioRententionCell     97.26      0.00      2.89      0.00      0.00     23.50    117.94       -0.05
  sub42             BioRententionCell     97.26      0.00      2.89      0.00      0.00     23.50    117.94       -0.05
  sub43             BioRententionCell     97.26      0.00      2.89      0.00      0.00     23.50    117.94       -0.05
  sub44             BioRententionCell     97.26      0.00      2.89      0.00      0.00     23.50    117.94       -0.05
  sub45             BioRententionCell     97.26      0.00      2.89      0.00      0.00     23.50    117.94       -0.05
  sub46             BioRententionCell     97.26      0.00      2.89      0.00      0.00     23.50    117.94       -0.05
  sub47             BioRententionCell     97.26      0.00      2.89      0.00      0.00     23.50    117.94       -0.05
  sub48             BioRententionCell     97.26      0.00      2.89      0.00      0.00     23.50    117.94       -0.05
  sub49             BioRententionCell     97.26      0.00      2.89      0.00      0.00     23.50    117.94       -0.05
  sub50             BioRententionCell     97.26      0.00      2.89      0.00      0.00     23.50    117.94       -0.05
  sub51             BioRententionCell     97.26      0.00      2.89      0.00      0.00     23.50    117.94       -0.05
  sub52             BioRententionCell     97.26      0.00      2.89      0.00      0.00     23.50    117.94       -0.05
  sub53             BioRententionCell     97.26      0.00      2.89      0.00      0.00     23.50    117.94       -0.05
  sub54             BioRententionCell     97.26      0.00      2.89      0.00      0.00     23.50    117.94       -0.05
  sub55             BioRententionCell     97.26      0.00      2.89      0.00      0.00     23.50    117.94       -0.05
  sub56             BioRententionCell     97.26      0.00      2.89      0.00      0.00     23.50    117.94       -0.05
  sub58             BioRententionCell     97.26      0.00      2.89      0.00      0.00     23.50    117.94       -0.05
  sub59             BioRententionCell     97.26      0.00      2.89      0.00      0.00     23.50    117.94       -0.05
  sub60             BioRententionCell     97.26      0.00      2.89      0.00      0.00     23.50    117.94       -0.05
  sub61             BioRententionCell     97.26      0.00      2.89      0.00      0.00     23.50    117.94       -0.05
  sub62             BioRententionCell     97.26      0.00      2.89      0.00      0.00     23.50    117.94       -0.05
  sub67             BioRententionCell     97.26      0.00      2.89      0.00      0.00     23.50    117.94       -0.05
  sub68             BioRententionCell     97.26      0.00      2.89      0.00      0.00     23.50    117.94       -0.05
  sub71             BioRententionCell     97.26      0.00      2.89      0.00      0.00     23.50    117.94       -0.05
  sub72             BioRententionCell     97.26      0.00      2.89      0.00      0.00     23.50    117.94       -0.05
  sub73             BioRententionCell     97.26      0.00      2.89      0.00      0.00     23.50    117.94       -0.05
  sub74             BioRententionCell     97.26      0.00      2.89      0.00      0.00     23.50    117.94       -0.05
  sub75             BioRententionCell     97.26      0.00      2.89      0.00      0.00     23.50    117.94       -0.05
  sub76             BioRententionCell     97.26      0.00      2.89      0.00      0.00     23.50    117.94       -0.05
  sub77             BioRententionCell     97.26      0.00      2.89      0.00      0.00     23.50    117.94       -0.05
  sub78             BioRententionCell     97.26      0.00      2.89      0.00      0.00     23.50    117.94       -0.05
  sub79             BioRententionCell     97.26      0.00      2.89      0.00      0.00     23.50    117.94       -0.05
  sub80             BioRententionCell     97.26      0.00      2.89      0.00      0.00     23.50    117.94       -0.05
  sub81             BioRententionCell     97.26      0.00      2.89      0.00      0.00     23.50    117.94       -0.05
  sub82             BioRententionCell     97.26      0.00      2.89      0.00      0.00     23.50    117.94       -0.05
  sub83             BioRententionCell     97.26      0.00      2.89      0.00      0.00     23.50    117.94       -0.05
  sub84             BioRententionCell     97.26      0.00      2.89      0.00      0.00     23.50    117.94       -0.05
  sub85             BioRententionCell     97.26      0.00      2.89      0.00      0.00     23.50    117.94       -0.05
  sub86             BioRententionCell     97.26      0.00      2.89      0.00      0.00     23.50    117.94       -0.05
  sub87             BioRententionCell     97.26      0.00      2.89      0.00      0.00     23.50    117.94       -0.05
  sub88             BioRententionCell     97.26      0.00      2.89      0.00      0.00     23.50    117.94       -0.05
  sub89             BioRententionCell     97.26      0.00      2.89      0.00      0.00     23.50    117.94       -0.05
  sub90             BioRententionCell     97.26      0.00      2.89      0.00      0.00     23.50    117.94       -0.05
  sub91             BioRententionCell     97.26      0.00      2.89      0.00      0.00     23.50    117.94       -0.05
  sub92             BioRententionCell     97.26      0.00      2.89      0.00      0.00     23.50    117.94       -0.05
  sub93             BioRententionCell     97.26      0.00      2.89      0.00      0.00     23.50    117.94       -0.05
  sub94             BioRententionCell     97.26      0.00      2.89      0.00      0.00     23.50    117.94       -0.05
  sub95             BioRententionCell     97.26      0.00      2.89      0.00      0.00     23.50    117.94       -0.05
  sub96             BioRententionCell     97.26      0.00      2.89      0.00      0.00     23.50    117.94       -0.05
  sub97             BioRententionCell     97.26      0.00      2.89      0.00      0.00     23.50    117.94       -0.05
  sub98             BioRententionCell     97.26      0.00      2.89      0.00      0.00     23.50    117.94       -0.05
  sub99             BioRententionCell     97.26      0.00      2.89      0.00      0.00     23.50    117.94       -0.05
  sub100            BioRententionCell     97.26      0.00      2.89      0.00      0.00     23.50    117.94       -0.05
  sub101            BioRententionCell     97.26      0.00      2.89      0.00      0.00     23.50    117.94       -0.05
  sub102            BioRententionCell     97.26      0.00      2.89      0.00      0.00     23.50    117.94       -0.05
  sub103            BioRententionCell     97.26      0.00      2.89      0.00      0.00     23.50    117.94       -0.05
  sub104            BioRententionCell     97.26      0.00      2.89      0.00      0.00     23.50    117.94       -0.05
  sub106            BioRententionCell     97.26      0.00      2.89      0.00      0.00     23.50    117.94       -0.05
  sub107            BioRententionCell     97.26      0.00      2.89      0.00      0.00     23.50    117.94       -0.05
  sub108            BioRententionCell     97.26      0.00      2.89      0.00      0.00     23.50    117.94       -0.05
  sub109            BioRententionCell     97.26      0.00      2.89      0.00      0.00     23.50    117.94       -0.05
  sub110            BioRententionCell     97.26      0.00      2.89      0.00      0.00     23.50    117.94       -0.05
  sub111            BioRententionCell     97.26      0.00      2.89      0.00      0.00     23.50    117.94       -0.05
  sub112            BioRententionCell     97.26      0.00      2.89      0.00      0.00     23.50    117.94       -0.05
  sub113            BioRententionCell     97.26      0.00      2.89      0.00      0.00     23.50    117.94       -0.05
  sub114            BioRententionCell     97.26      0.00      2.89      0.00      0.00     23.50    117.94       -0.05
  sub115            BioRententionCell     97.26      0.00      2.89      0.00      0.00     23.50    117.94       -0.05
  sub116            BioRententionCell     97.26      0.00      2.89      0.00      0.00     23.50    117.94       -0.05
  sub117            BioRententionCell     97.26      0.00      2.89      0.00      0.00     23.50    117.94       -0.05
  
  ******************
  Node Depth Summary
  ******************
  
  ---------------------------------------------------------------------------------
                                 Average  Maximum  Maximum  Time of Max    Reported
                                   Depth    Depth      HGL   Occurrence   Max Depth
  Node                 Type       Meters   Meters   Meters  days hr:min      Meters
  ---------------------------------------------------------------------------------
  WS02001211           JUNCTION     1.04     2.28     7.12     0  00:47        2.23
  WS02001212           JUNCTION     0.80     1.96     7.02     0  00:47        1.84
  WS02001213           JUNCTION     1.05     2.20     6.96     0  00:47        2.08
  WS02003069           JUNCTION     0.99     1.69     6.28     0  00:51        1.68
  WS02003072           JUNCTION     1.05     1.58     5.96     0  00:51        1.58
  WS02003073           JUNCTION     1.27     1.71     5.77     0  00:51        1.70
  WS02003076           JUNCTION     1.00     1.36     5.58     0  00:51        1.36
  WS02003060           JUNCTION     0.88     1.68     6.61     0  00:51        1.67
  WS02003066           JUNCTION     0.53     1.17     6.72     0  00:50        1.16
  WS02003059           JUNCTION     1.11     1.95     6.63     0  00:47        1.92
  WS02003115           JUNCTION     2.05     2.76     9.62     0  00:32        2.73
  WS02003116           JUNCTION     2.20     3.03     9.74     0  00:24        2.94
  WS02003118           JUNCTION     2.18     2.90     9.52     0  00:24        2.90
  WS02003215           JUNCTION     2.07     2.80     9.66     0  00:32        2.80
  WS02003110           JUNCTION     1.69     2.38     9.63     0  00:51        2.38
  WS02003111           JUNCTION     1.80     2.35     9.44     0  00:32        2.35
  WS02005155           JUNCTION     1.66     2.52     9.83     0  00:51        2.51
  WS02005154           JUNCTION     1.43     2.46    10.09     0  00:51        2.45
  WS02005193           JUNCTION     1.51     3.10    10.92     0  00:45        3.03
  WS02005196           JUNCTION     1.48     3.31    11.16     0  00:28        3.00
  WS02003067           JUNCTION     0.86     1.48     6.80     0  00:50        1.48
  WS02004401           JUNCTION     1.52     2.52     8.52     0  00:49        2.45
  WS02004402           JUNCTION     1.51     2.53     8.49     0  00:49        2.47
  WS02004403           JUNCTION     1.49     2.53     8.46     0  00:49        2.47
  WS02004404           JUNCTION     1.54     2.59     8.44     0  00:49        2.52
  WS02004406           JUNCTION     1.48     2.54     8.37     0  00:49        2.54
  WS02004409           JUNCTION     1.25     2.34     8.11     0  00:49        2.34
  WS02004410           JUNCTION     1.14     2.10     7.82     0  00:50        2.09
  WS02004411           JUNCTION     1.06     1.88     7.56     0  00:50        1.87
  WS02004412           JUNCTION     0.96     1.65     7.29     0  00:50        1.64
  WS02004413           JUNCTION     0.99     1.56     7.03     0  00:50        1.54
  WS02004405           JUNCTION     1.52     2.56     8.41     0  00:49        2.52
  WS02006109           JUNCTION     1.98     2.64     9.26     0  00:43        2.64
  WS02006110           JUNCTION     1.79     2.49     9.07     0  00:54        2.48
  WS02006111           JUNCTION     1.20     2.00     8.70     0  00:54        1.99
  WS02006112           JUNCTION     1.81     2.68     8.56     0  00:00        2.68
  WS02006113           JUNCTION     1.28     2.00     8.89     0  00:48        1.99
  WS02006115           JUNCTION     1.48     2.42     8.55     0  00:49        2.38
  WS02006116           JUNCTION     1.53     2.50     8.54     0  00:49        2.45
  WS02006230           JUNCTION     2.06     2.65     9.39     0  00:39        2.65
  WS02006231           JUNCTION     1.65     2.19     9.31     0  00:58        2.19
  WS02006232           JUNCTION     1.69     2.18     9.22     0  00:38        2.18
  WS02006234           JUNCTION     1.52     1.96     9.12     0  00:37        1.96
  WS02006235           JUNCTION     1.50     1.93     9.10     0  01:04        1.93
  WS02006238           JUNCTION     1.51     1.93     9.08     0  01:04        1.93
  WS02006240           JUNCTION     1.29     1.63     8.93     0  01:26        1.62
  WS02006242           JUNCTION     1.26     1.55     8.82     0  00:25        1.55
  WS02006243           JUNCTION     1.10     1.48     8.90     0  00:26        1.37
  WS02006245           JUNCTION     1.03     1.27     8.76     0  01:18        1.27
  WS02006247           JUNCTION     1.01     1.23     8.73     0  00:48        1.23
  WS02006248           JUNCTION     0.92     1.10     8.69     0  00:27        1.10
  WS02006249           JUNCTION     0.92     1.09     8.69     0  00:27        1.09
  WS02006239           JUNCTION     1.40     1.79     9.00     0  00:54        1.78
  WS02006251           JUNCTION     1.39     2.21     9.88     0  00:45        2.18
  WS02006252           JUNCTION     0.95     1.50     9.74     0  00:45        1.50
  WS02006253           JUNCTION     1.68     3.21    10.85     0  00:52        3.21
  WS02006256           JUNCTION     1.88     2.35     9.28     0  00:16        2.35
  WS02004138           JUNCTION     0.12     0.14     7.39     0  00:33        0.14
  WS02004139           JUNCTION     0.97     2.24     7.15     0  00:47        2.21
  WS02004407           JUNCTION     0.90     2.08     8.39     0  00:49        2.06
  WS02006228           JUNCTION     2.21     3.03     9.68     0  00:56        3.03
  WS02006229           JUNCTION     2.31     3.23     9.92     0  00:49        3.22
  WS02006280           JUNCTION     1.02     1.75    10.02     0  01:00        1.74
  WS02006284           JUNCTION     1.19     1.95    10.35     0  00:51        1.94
  WS02006287           JUNCTION     0.93     1.75    10.70     0  00:49        1.74
  WS02003091           JUNCTION     2.95     4.43    10.23     0  00:00        3.91
  WS02003203           JUNCTION     2.89     3.83     9.82     0  00:00        3.83
  WS6145               JUNCTION     0.49     2.33    10.44     0  00:50        2.31
  WS6147               JUNCTION     0.42     2.25    10.52     0  00:49        2.16
  WS6150               JUNCTION     0.41     2.23    10.56     0  00:49        2.13
  WS6152               JUNCTION     0.42     2.20    10.54     0  00:49        2.14
  WS6155               JUNCTION     0.38     2.10    10.50     0  00:49        2.10
  WS6156               JUNCTION     0.36     2.05    10.52     0  00:49        2.05
  WS6136               JUNCTION     0.43     1.90    10.85     0  00:49        1.90
  WS6140               JUNCTION     0.55     2.46    10.40     0  00:50        2.44
  WS6142               JUNCTION     0.49     2.34    10.41     0  00:50        2.32
  WS6325               JUNCTION     0.78     2.74    10.39     0  00:51        2.74
  WS6327               JUNCTION     0.63     2.58    10.40     0  00:51        2.58
  WS6329               JUNCTION     0.58     2.52    10.40     0  00:51        2.52
  WS6332               JUNCTION     0.50     2.53    10.56     0  00:48        2.47
  WS6158               JUNCTION     0.33     2.05    10.59     0  00:49        1.98
  WS6335               JUNCTION     0.49     2.60    10.67     0  00:48        2.57
  WS6338               JUNCTION     0.44     2.55    10.75     0  00:48        2.54
  WS6340               JUNCTION     0.39     2.50    10.84     0  00:48        2.50
  WS6342               JUNCTION     0.31     2.50    11.10     0  00:48        2.50
  WS6135               JUNCTION     0.93     2.90    10.39     0  00:50        2.88
  WS6396               JUNCTION     0.60     2.02     9.57     0  00:50        2.01
  WS6399               JUNCTION     0.37     1.37     8.81     0  00:50        1.36
  WS02003082           JUNCTION     1.42     1.93     7.00     0  00:57        1.92
  WS02003077           JUNCTION     0.50     0.84     5.85     0  00:51        0.84
  WS02003080           JUNCTION     0.93     1.31     6.24     0  00:51        1.30
  WS02003083           JUNCTION     1.81     2.41     7.44     0  00:54        2.40
  WS02003084           JUNCTION     1.96     2.60     7.70     0  00:50        2.60
  WS02003085           JUNCTION     2.04     2.72     7.90     0  01:01        2.72
  WS02003086           JUNCTION     2.29     3.03     8.23     0  01:01        3.02
  WS02003087           JUNCTION     2.57     3.36     8.57     0  01:00        3.36
  WS02003088           JUNCTION     2.76     4.14     9.43     0  00:00        4.07
  WS02003089           JUNCTION     2.89     4.34     9.80     0  00:00        4.02
  WS02003090           JUNCTION     3.11     4.12     9.55     0  00:00        4.05
  WS02003081           JUNCTION     1.16     1.61     6.66     0  00:51        1.61
  WS02003122           JUNCTION     2.36     3.30     9.67     0  00:23        3.10
  WS02003187           JUNCTION     2.39     3.11     9.44     0  00:23        3.11
  WS02003188           JUNCTION     2.35     2.97     9.23     0  00:23        2.97
  WS02003190           JUNCTION     2.33     2.84     9.04     0  00:23        2.84
  WS02003193           JUNCTION     2.32     2.85     9.09     0  00:23        2.85
  WS02003195           JUNCTION     2.35     2.93     9.18     0  00:23        2.93
  WS02003196           JUNCTION     2.46     3.13     9.31     0  00:51        3.12
  WS02003198           JUNCTION     2.50     3.23     9.41     0  00:51        3.22
  WS02003200           JUNCTION     2.26     2.99     9.43     0  00:30        2.93
  WS02003201           JUNCTION     2.54     3.22     9.36     0  00:30        3.22
  WS02003202           JUNCTION     2.69     4.17    10.23     0  00:00        3.48
  WS02004041           JUNCTION     0.67     0.98     5.34     0  00:51        0.98
  WSA6400              JUNCTION     1.21     2.44     8.28     0  00:49        2.42
  WS6400               JUNCTION     0.55     1.71     8.37     0  00:49        1.68
  WSF208               JUNCTION     0.90     1.96     8.05     0  00:49        1.94
  WSF207               JUNCTION     0.79     1.69     7.83     0  00:49        1.69
  WSF206               JUNCTION     0.87     1.74     7.67     0  00:49        1.73
  WSF205               JUNCTION     0.79     1.61     7.52     0  00:50        1.61
  WSF204               JUNCTION     1.32     2.17     7.32     0  00:50        2.16
  WSF203               JUNCTION     0.68     1.37     7.07     0  00:51        1.36
  WSF202               JUNCTION     0.60     1.20     6.92     0  00:50        1.18
  WSF201               JUNCTION     0.51     1.05     6.77     0  00:50        1.04
  WSF200               JUNCTION     0.68     1.45     6.69     0  00:50        1.45
  HS02004901           JUNCTION     0.76     1.42    11.24     0  00:43        1.42
  HS02004881           JUNCTION     0.64     2.15    11.18     0  00:45        1.94
  HS02004876           JUNCTION     0.77     2.26    11.29     0  00:45        2.19
  HS02004870           JUNCTION     0.67     2.10    11.39     0  00:45        2.06
  HS02004862           JUNCTION     0.67     2.00    11.38     0  00:45        2.00
  HS02004856           JUNCTION     0.70     2.07    11.50     0  00:45        2.04
  HS02004852           JUNCTION     0.64     2.09    11.61     0  00:45        1.98
  HS02004848           JUNCTION     0.62     2.07    11.67     0  00:45        1.92
  HS02004842           JUNCTION     0.93     2.22    11.49     0  00:45        2.22
  HS02004837           JUNCTION     0.64     2.01    11.59     0  00:45        1.92
  HS02004830           JUNCTION     0.72     2.03    11.50     0  00:45        1.99
  HS02004824           JUNCTION     0.76     2.01    11.41     0  00:45        2.01
  HS02004817           JUNCTION     1.24     2.43    11.28     0  00:45        2.41
  HS02004807           JUNCTION     0.91     1.92    11.09     0  00:45        1.92
  HS02004802           JUNCTION     0.92     1.80    10.93     0  00:49        1.80
  HS02004799           JUNCTION     1.00     1.76    10.97     0  00:43        1.76
  HS02004792           JUNCTION     0.80     1.60    11.12     0  00:43        1.60
  HS02004788           JUNCTION     0.61     1.42    11.32     0  00:43        1.39
  HS02004785           JUNCTION     0.65     1.49    11.39     0  00:43        1.38
  HS02004777           JUNCTION     0.77     1.48    11.28     0  00:43        1.46
  HS02004770           JUNCTION     0.75     1.42    11.25     0  00:43        1.42
  HS02004480           JUNCTION     0.90     1.68    10.92     0  00:45        1.64
  HS02004479           JUNCTION     0.93     1.69    10.90     0  00:45        1.67
  HS02004478           JUNCTION     0.80     1.59    10.82     0  00:48        1.58
  HS02004053           JUNCTION     0.32     1.90    10.67     0  00:48        1.63
  HS02004052           JUNCTION     0.40     1.50    11.15     0  00:48        1.38
  HS02004049           JUNCTION     0.24     0.99    11.68     0  00:49        0.86
  HS02004048           JUNCTION     0.54     1.70    12.60     0  00:47        1.70
  HS02004046           JUNCTION     0.49     1.80    13.52     0  00:50        1.80
  HS02004043           JUNCTION     0.30     2.24    14.93     0  00:51        2.24
  HS02004041           JUNCTION     0.17     1.99    17.43     0  00:51        1.28
  HS02004038           JUNCTION     0.14     0.42    19.10     0  00:52        0.42
  HS02004036           JUNCTION     0.00     0.00    22.46     0  00:00        0.00
  HS02004034           JUNCTION     0.00     0.00    26.83     0  00:00        0.00
  HS02004028           JUNCTION     0.20     0.51    37.36     0  00:48        0.51
  HS02004027           JUNCTION     0.16     0.34    36.47     0  00:48        0.34
  HS02004026           JUNCTION     0.16     0.35    35.75     0  00:48        0.35
  HS02004024           JUNCTION     0.17     0.41    34.63     0  00:48        0.41
  HS02004022           JUNCTION     0.24     0.80    33.84     0  00:48        0.80
  HS02004021           JUNCTION     0.28     0.81    32.54     0  00:45        0.81
  HS02004019           JUNCTION     0.35     0.80    31.76     0  00:44        0.80
  HS02004018           JUNCTION     0.23     0.60    33.81     0  00:47        0.60
  HS02004017           JUNCTION     0.21     0.53    34.37     0  00:48        0.53
  HS02004013           JUNCTION     0.15     0.72    35.86     0  00:51        0.72
  HS02004010           JUNCTION     0.06     0.19    38.05     0  00:51        0.18
  HS02003174           JUNCTION     0.20     0.49     6.03     0  00:52        0.49
  HS02003171           JUNCTION     0.22     0.55     6.23     0  00:52        0.55
  HS02003170           JUNCTION     0.25     0.50     6.96     0  00:52        0.50
  HS02003168           JUNCTION     0.13     0.34     6.84     0  00:52        0.34
  HS02003166           JUNCTION     0.25     0.51     6.99     0  00:52        0.51
  HS02003162           JUNCTION     0.23     0.42    30.67     0  00:45        0.42
  HS02003160           JUNCTION     0.17     0.39    28.45     0  00:51        0.39
  HS02003150           JUNCTION     0.18     0.42    26.44     0  00:51        0.42
  HS02003148           JUNCTION     0.21     0.56    22.30     0  00:51        0.55
  HS02003145           JUNCTION     0.28     0.81    14.68     0  00:48        0.81
  HS02003143           JUNCTION     0.39     0.80    13.27     0  00:41        0.80
  HS02003138           JUNCTION     0.25     0.61     7.10     0  01:42        0.61
  HS02003136           JUNCTION     1.51     2.28    10.00     0  00:00        2.28
  HS02003125           JUNCTION     1.59     2.38     9.83     0  00:32        2.32
  HS02003122           JUNCTION     1.64     2.46     9.89     0  00:51        2.46
  HS02003119           JUNCTION     1.40     2.46    10.18     0  00:32        2.30
  HS02003116           JUNCTION     1.08     2.43    10.55     0  00:32        1.94
  HS02003111           JUNCTION     0.49     1.06    10.07     0  00:51        1.06
  HS02003108           JUNCTION     0.40     1.30    10.41     0  00:51        1.06
  HS02003100           JUNCTION     0.29     1.45    10.68     0  00:51        0.99
  HS02003088           JUNCTION     0.24     1.62    10.92     0  00:51        1.02
  HS02003084           JUNCTION     0.12     1.64    11.07     0  00:51        0.87
  HS02003079           JUNCTION     0.08     1.60    11.11     0  00:51        0.80
  HS02003077           JUNCTION     0.03     1.48    11.22     0  00:51        0.62
  HS02003065           JUNCTION     0.72     1.67    10.91     0  00:51        1.67
  HS02003056           JUNCTION     0.77     1.77    10.72     0  00:52        1.77
  HS02003053           JUNCTION     0.55     1.66    10.96     0  00:47        1.66
  HS02003042           JUNCTION     0.38     1.69    11.35     0  00:47        1.44
  HS02003039           JUNCTION     0.42     1.81    11.46     0  00:47        1.53
  HS02003036           JUNCTION     0.24     1.41    11.47     0  00:47        1.31
  HS02003028           JUNCTION     0.36     1.40    11.14     0  00:47        1.40
  HS02003021           JUNCTION     0.38     1.55    10.92     0  00:46        1.49
  HS02003018           JUNCTION     0.40     1.48    10.69     0  00:46        1.48
  HS02003017           JUNCTION     0.40     1.48    10.64     0  00:46        1.48
  HS02003013           JUNCTION     0.39     1.47    10.52     0  00:46        1.42
  HS02003010           JUNCTION     0.41     1.45    10.25     0  00:46        1.30
  HS02003007           JUNCTION     0.36     1.31     9.93     0  00:46        1.09
  HS02003004           JUNCTION     0.44     1.05     9.37     0  00:46        0.98
  HS02003001           JUNCTION     0.13     0.31     8.61     0  00:52        0.31
  YS02001738           JUNCTION     0.00     0.00     8.89     0  00:00        0.00
  YS02001739           JUNCTION     0.00     0.00     8.37     0  00:00        0.00
  YS02001742           JUNCTION     0.00     0.00     8.49     0  00:00        0.00
  YS02001745           JUNCTION     0.16     0.64     8.16     0  00:52        0.64
  YS02001748           JUNCTION     0.21     2.27     9.35     0  00:52        1.00
  YS02001751           JUNCTION     0.23     2.20     9.08     0  00:51        1.15
  YS02001754           JUNCTION     0.27     2.20     8.81     0  00:51        1.37
  YS02001762           JUNCTION     0.48     2.15     8.55     0  00:50        1.82
  YS02001765           JUNCTION     0.47     2.10     8.55     0  00:50        1.82
  YS02001767           JUNCTION     0.49     2.03     8.52     0  00:50        1.85
  YS02001770           JUNCTION     0.55     1.95     8.44     0  00:50        1.95
  YS02001774           JUNCTION     0.62     2.05     8.47     0  00:50        1.99
  YS02001779           JUNCTION     0.37     1.68     8.37     0  00:50        1.68
  YS02001882           JUNCTION     0.82     1.83     8.55     0  00:44        1.67
  YS02001884           JUNCTION     0.92     1.93     8.55     0  00:44        1.77
  YS02001759           JUNCTION     0.49     2.21     8.57     0  00:50        1.81
  YS02001887           JUNCTION     0.99     1.93     8.47     0  00:44        1.85
  YS02001890           JUNCTION     1.02     1.81     8.32     0  00:44        1.81
  YS02001898           JUNCTION     0.79     1.57     8.30     0  00:46        1.56
  YS02001901           JUNCTION     0.89     1.68     8.29     0  00:57        1.67
  YS02001904           JUNCTION     0.87     1.64     8.27     0  00:46        1.63
  YS02001907           JUNCTION     1.19     1.96     8.25     0  00:46        1.96
  YS02001910           JUNCTION     1.02     2.01     8.52     0  00:54        2.01
  YS02001915           JUNCTION     0.87     2.00     8.72     0  00:51        2.00
  YS02001918           JUNCTION     0.60     1.81     8.88     0  00:47        1.81
  YS02001920           JUNCTION     0.68     2.12     9.12     0  00:48        2.10
  YS02001923           JUNCTION     0.50     2.03     9.29     0  00:48        2.00
  YS02001926           JUNCTION     0.49     1.90     9.35     0  00:48        1.89
  YS02001929           JUNCTION     0.34     1.78     9.47     0  00:47        1.78
  YS02001932           JUNCTION     0.24     1.77     9.57     0  00:51        1.10
  YS02001935           JUNCTION     0.19     1.75     9.68     0  00:51        0.98
  YS02001757           JUNCTION     0.46     2.10     8.36     0  00:50        1.68
  YS02001895           JUNCTION     0.78     1.57     8.32     0  01:00        1.56
  YS02005679           JUNCTION     0.00     0.00    10.24     0  00:00        0.00
  YS02005559           JUNCTION     0.09     0.20    10.15     0  00:53        0.20
  YS02005651           JUNCTION     0.07     0.19    10.96     0  00:52        0.19
  YS02005670           JUNCTION     0.08     0.22    10.68     0  00:51        0.22
  YS02005547           JUNCTION     0.05     0.14    10.68     0  00:51        0.14
  YS02005549           JUNCTION     0.07     0.22    11.13     0  00:51        0.21
  YS02005550           JUNCTION     0.09     0.26    10.89     0  00:52        0.26
  YS02005551           JUNCTION     0.06     0.14    10.51     0  00:52        0.14
  YS02005553           JUNCTION     0.11     0.27    10.63     0  00:52        0.27
  YS02005554           JUNCTION     0.06     0.13    10.37     0  00:52        0.13
  YS02005556           JUNCTION     0.12     0.26    10.31     0  00:53        0.26
  YS02005557           JUNCTION     0.06     0.14    10.10     0  00:53        0.14
  YS02005560           JUNCTION     0.07     0.15     9.89     0  00:53        0.15
  YS02005562           JUNCTION     0.11     0.24     9.97     0  00:51        0.23
  YS02005563           JUNCTION     0.06     0.13     9.79     0  00:51        0.13
  YS02005565           JUNCTION     0.10     0.20     9.91     0  00:53        0.20
  YS02005566           JUNCTION     0.08     0.17     9.56     0  00:53        0.17
  YS02005568           JUNCTION     0.12     0.27     9.78     0  00:53        0.27
  YS02005569           JUNCTION     0.09     0.19     9.52     0  00:53        0.19
  YS02005598           JUNCTION     0.24     1.07    10.91     0  00:47        1.07
  YS02005600           JUNCTION     0.24     1.02    10.68     0  00:47        1.02
  YS02005602           JUNCTION     0.54     2.15    10.43     0  00:47        2.15
  YS02005603           JUNCTION     0.17     1.14     9.26     0  00:47        0.58
  YS02005609           JUNCTION     0.08     0.22     9.11     0  00:52        0.22
  YS02005653           JUNCTION     0.13     0.87    11.84     0  00:51        0.87
  YS02005654           JUNCTION     0.14     0.65    11.40     0  00:52        0.65
  YS02005655           JUNCTION     0.06     0.15    10.78     0  00:51        0.15
  YS02005595           JUNCTION     0.34     1.36    11.04     0  00:45        1.36
  YS02005658           JUNCTION     0.11     0.49    11.40     0  00:50        0.48
  YS02005659           JUNCTION     0.06     0.15    10.81     0  00:52        0.15
  YS02005661           JUNCTION     0.15     0.68    11.39     0  00:51        0.67
  YS02005662           JUNCTION     0.05     0.14    10.76     0  00:52        0.14
  YS02005664           JUNCTION     0.15     0.62    11.20     0  00:52        0.62
  YS02005665           JUNCTION     0.05     0.13    10.69     0  00:52        0.13
  YS02005668           JUNCTION     0.05     0.14    10.30     0  00:52        0.14
  YS02005667           JUNCTION     0.29     0.83    10.85     0  00:51        0.83
  YS02005571           JUNCTION     0.18     0.51     9.99     0  00:53        0.50
  YS02005572           JUNCTION     0.12     0.26     9.62     0  00:53        0.26
  YS02005576           JUNCTION     0.11     0.24     9.99     0  00:53        0.24
  YS02005577           JUNCTION     0.09     0.21     9.69     0  00:53        0.21
  YS02005579           JUNCTION     0.25     1.12    10.74     0  00:50        1.12
  YS02005580           JUNCTION     0.15     0.92    10.45     0  00:50        0.69
  YS02005582           JUNCTION     0.28     0.86    10.94     0  00:49        0.86
  YS02005583           JUNCTION     0.15     0.67    10.67     0  00:49        0.41
  YS02005612           JUNCTION     0.43     1.56     9.69     0  00:52        1.56
  YS02005615           JUNCTION     0.06     0.15    11.64     0  00:51        0.15
  YS02005616           JUNCTION     0.05     0.12    10.94     0  00:51        0.12
  YS02005618           JUNCTION     0.09     0.26    11.11     0  00:51        0.26
  YS02005619           JUNCTION     0.05     0.14    10.69     0  00:51        0.14
  YS02005621           JUNCTION     0.09     0.30    11.40     0  00:51        0.29
  YS02005622           JUNCTION     0.04     0.12    11.08     0  00:51        0.12
  YS02005625           JUNCTION     0.04     0.10    11.12     0  00:51        0.10
  YS02005627           JUNCTION     0.12     0.44    11.37     0  00:50        0.43
  YS02005628           JUNCTION     0.04     0.11    11.01     0  00:51        0.11
  YS02005630           JUNCTION     0.11     0.46    11.54     0  00:51        0.46
  YS02005631           JUNCTION     0.05     0.13    11.01     0  00:52        0.13
  YS02005633           JUNCTION     0.10     0.55    11.68     0  00:50        0.44
  YS02005634           JUNCTION     0.06     0.14    10.98     0  00:52        0.14
  YS02005636           JUNCTION     0.12     0.60    11.59     0  00:52        0.59
  YS02005637           JUNCTION     0.06     0.17    10.93     0  00:52        0.17
  YS02005639           JUNCTION     0.11     0.49    11.12     0  00:51        0.48
  YS02005640           JUNCTION     0.06     0.17    10.49     0  00:52        0.17
  YS02005642           JUNCTION     0.08     0.24    11.06     0  00:52        0.24
  YS02005644           JUNCTION     0.17     0.87    11.98     0  00:50        0.87
  YS02005645           JUNCTION     0.09     0.22    11.03     0  00:50        0.22
  YS02005647           JUNCTION     0.24     1.03    11.92     0  00:50        1.03
  YS02005648           JUNCTION     0.09     0.23    11.02     0  00:50        0.23
  YS02005650           JUNCTION     0.15     0.74    11.63     0  00:51        0.74
  YS02005671           JUNCTION     0.04     0.11    10.33     0  00:51        0.11
  YS02005673           JUNCTION     0.08     0.24    10.59     0  00:52        0.24
  YS02005674           JUNCTION     0.06     0.15    10.04     0  00:52        0.15
  YS02005676           JUNCTION     0.00     0.00    10.24     0  00:00        0.00
  YS02005680           JUNCTION     0.05     0.14    10.24     0  00:52        0.14
  YS02005682           JUNCTION     0.00     0.00    10.06     0  00:00        0.00
  YS02005683           JUNCTION     0.03     0.09     9.98     0  00:51        0.09
  YS02005376           JUNCTION     0.74     1.01    11.10     0  00:30        1.01
  YS02005378           JUNCTION     1.28     1.62    11.14     0  00:44        1.62
  YS02005381           JUNCTION     1.18     1.57    11.20     0  00:30        1.57
  YS02005624           JUNCTION     0.23     0.53    11.42     0  00:51        0.53
  YS02005384           JUNCTION     0.38     0.78    10.44     0  00:30        0.53
  YS02005677           JUNCTION     0.06     0.16    10.24     0  00:51        0.16
  YSB1105              JUNCTION     0.30     1.37    10.85     0  00:53        0.75
  YSB1106              JUNCTION     0.30     1.62    11.45     0  00:49        0.88
  YSB1109              JUNCTION     0.37     1.62    11.56     0  00:49        1.19
  YSB1112              JUNCTION     0.39     1.79    11.92     0  00:53        1.42
  YSB1115              JUNCTION     0.36     1.90    12.20     0  00:49        1.40
  YSB1118              JUNCTION     0.38     1.73    12.27     0  00:49        1.49
  YSB1121              JUNCTION     0.45     1.70    12.37     0  00:49        1.70
  YSB1124              JUNCTION     0.31     1.60    12.43     0  00:49        1.55
  YSB1128              JUNCTION     0.48     1.85    12.43     0  00:44        1.50
  YSB1132              JUNCTION     0.53     1.90    12.35     0  00:44        1.62
  YSB1228              JUNCTION     0.06     0.17    11.01     0  00:51        0.17
  YSB1202              JUNCTION     0.88     1.50    12.39     0  00:42        1.46
  YSB1135              JUNCTION     0.66     2.00    12.26     0  00:44        1.81
  YSB1138              JUNCTION     0.75     1.90    12.07     0  00:44        1.90
  YSB1141              JUNCTION     0.79     2.00    11.83     0  00:44        1.85
  YSB1145              JUNCTION     0.80     2.00    11.69     0  00:44        1.85
  YSB1148              JUNCTION     0.87     2.00    11.50     0  00:44        1.89
  YSB1151              JUNCTION     1.05     2.08    11.30     0  00:44        2.00
  YSB1154              JUNCTION     1.19     2.10    11.16     0  00:44        2.10
  YSB1198              JUNCTION     0.24     1.60    12.39     0  00:45        1.17
  YSB1192              JUNCTION     0.46     1.90    12.17     0  00:44        1.70
  YSB6556              JUNCTION     1.02     1.80    10.97     0  00:44        1.80
  YSB1205              JUNCTION     1.06     1.65    12.35     0  00:42        1.65
  YSB1209              JUNCTION     1.03     1.65    12.22     0  00:42        1.65
  YSB1212              JUNCTION     0.93     1.60    12.13     0  00:42        1.60
  YSB1215              JUNCTION     0.94     1.69    12.04     0  01:01        1.69
  YSB1218              JUNCTION     0.94     1.75    11.94     0  00:49        1.75
  YSB1221              JUNCTION     0.89     1.78    11.75     0  00:53        1.59
  YSB1224              JUNCTION     0.79     1.72    11.57     0  00:53        1.35
  YSB1195              JUNCTION     0.40     1.90    12.28     0  00:44        1.59
  YSB1189              JUNCTION     0.56     1.80    11.96     0  00:44        1.80
  YSB1186              JUNCTION     0.61     1.93    11.80     0  00:44        1.74
  YSB1183              JUNCTION     0.75     2.05    11.64     0  00:44        1.87
  YSB1180              JUNCTION     0.78     1.95    11.46     0  00:44        1.83
  YSB1177              JUNCTION     1.03     2.05    11.24     0  00:44        2.02
  YSB1174              JUNCTION     1.08     1.95    11.06     0  00:49        1.95
  YSB1171              JUNCTION     1.24     1.95    10.85     0  00:43        1.95
  YS02006553           JUNCTION     1.19     2.01     8.29     0  00:46        1.99
  YS02006561           JUNCTION     0.43     1.16     7.82     0  00:46        0.93
  YS02006562           JUNCTION     0.96     1.84     8.35     0  00:46        1.81
  YS02006556           JUNCTION     1.15     2.02     8.33     0  00:46        1.99
  YS02006558           JUNCTION     1.20     2.07     8.34     0  00:46        2.06
  YS6132               JUNCTION     0.61     2.75    10.07     0  00:58        1.48
  YS6137               JUNCTION     0.33     2.43    10.22     0  00:58        1.44
  YS6189               JUNCTION     0.44     2.51    10.30     0  00:58        1.73
  YS6184               JUNCTION     0.45     2.44    10.33     0  00:50        1.97
  YS6179               JUNCTION     0.39     2.60    10.58     0  00:50        1.95
  YS6176               JUNCTION     0.29     2.33    10.53     0  00:51        1.78
  YS6171               JUNCTION     0.30     2.10    10.51     0  00:50        1.85
  YS6168               JUNCTION     0.33     2.00    10.51     0  00:51        2.00
  YS6164               JUNCTION     0.14     1.90    10.63     0  00:51        1.78
  YS6162               JUNCTION     0.20     2.10    10.75     0  00:51        1.85
  YS6187               JUNCTION     0.48     2.48    10.26     0  00:58        1.83
  YS6363               JUNCTION     0.37     2.95    10.74     0  00:58        1.26
  YS6360               JUNCTION     0.49     2.61    10.41     0  00:58        1.49
  YS6354               JUNCTION     0.49     2.59    10.74     0  00:58        1.94
  YS6351               JUNCTION     0.58     2.50    10.71     0  00:56        2.25
  YS6350               JUNCTION     0.65     2.50    10.72     0  00:49        2.44
  YS6348               JUNCTION     0.60     2.45    10.85     0  00:49        2.45
  YS6344               JUNCTION     0.42     2.27    10.86     0  00:57        2.26
  YS6375               JUNCTION     0.10     0.34     8.77     0  00:52        0.34
  YS6377               JUNCTION     0.16     0.41     8.77     0  00:52        0.41
  YS6381               JUNCTION     0.18     0.47     8.60     0  00:52        0.47
  YS6386               JUNCTION     0.20     0.55     8.53     0  00:52        0.55
  YS6390               JUNCTION     0.42     0.66     8.35     0  00:52        0.66
  YS6394               JUNCTION     0.11     0.27     8.19     0  00:52        0.27
  YS6404               JUNCTION     0.56     3.00    10.23     0  00:56        1.20
  YS6401               JUNCTION     0.18     0.42     7.63     0  00:52        0.41
  YS02004319           JUNCTION     0.33     1.18    20.80     0  00:44        1.18
  YS02004320           JUNCTION     0.00     0.00    22.64     0  01:00        0.00
  YS02004321           JUNCTION     0.00     0.00    26.80     0  00:58        0.00
  YS02004307           JUNCTION     0.17     0.52    11.05     0  00:50        0.51
  YS02004309           JUNCTION     0.79     1.55    13.07     0  00:36        1.55
  YS02004312           JUNCTION     0.51     1.48    14.91     0  00:43        1.48
  YS02004314           JUNCTION     0.38     1.28    16.99     0  00:44        1.28
  YS02004316           JUNCTION     0.38     1.36    19.13     0  00:44        1.36
  YS02001783           JUNCTION     0.67     1.42     7.56     0  00:46        1.25
  YS02001784           JUNCTION     0.64     1.21     7.28     0  00:46        1.14
  YS02001786           JUNCTION     0.51     0.96     6.99     0  00:46        0.88
  YS02001788           JUNCTION     0.38     0.63     6.60     0  00:50        0.63
  YS02001790           JUNCTION     0.44     0.72     6.37     0  01:00        0.71
  YS02001791           JUNCTION     0.26     0.44     5.91     0  00:59        0.44
  YS02001793           JUNCTION     0.14     0.29     5.12     0  01:11        0.27
  YS02003309           JUNCTION     0.70     1.21     9.77     0  00:28        1.21
  YS02003306           JUNCTION     0.82     1.16     9.60     0  00:28        1.16
  YS02003269           JUNCTION     0.14     0.17     7.76     0  00:45        0.17
  YS02003272           JUNCTION     0.41     1.33     9.06     0  00:28        0.58
  YS02003278           JUNCTION     0.82     1.22     9.14     0  00:28        1.21
  YS02003281           JUNCTION     0.92     1.39     9.47     0  00:44        1.39
  YS02003284           JUNCTION     1.00     1.40     9.41     0  00:28        1.40
  YS02003287           JUNCTION     0.95     1.27     9.34     0  00:28        1.27
  YS02003290           JUNCTION     0.81     1.13     9.41     0  00:28        1.11
  YS02003294           JUNCTION     0.96     1.24     9.42     0  00:28        1.24
  YS02003275           JUNCTION     0.61     1.16     9.07     0  00:28        0.91
  YS02003297           JUNCTION     0.94     1.22     9.43     0  00:28        1.22
  YS02003300           JUNCTION     0.88     1.15     9.42     0  00:28        1.15
  YS02003303           JUNCTION     0.87     1.14     9.46     0  00:28        1.14
  YSB1227              JUNCTION     0.01     0.11    11.01     0  00:51        0.11
  CaochengRainPumpOutfall1 OUTFALL      0.00     0.00     6.00     0  00:00        0.00
  JiankangRainPumpOutfall2 OUTFALL      0.00     0.00     6.00     0  00:00        0.00
  JiankangRainPumpOutfall1 OUTFALL      0.00     0.00     6.00     0  00:00        0.00
  CaochengRainPumpOutfall2 OUTFALL      0.00     0.00     6.00     0  00:00        0.00
  YS02005684           OUTFALL      0.03     0.09     8.49     0  00:51        0.09
  YS02005681           OUTFALL      0.05     0.14     9.36     0  00:52        0.14
  YS02005678           OUTFALL      0.06     0.16     8.69     0  00:51        0.16
  YS02005675           OUTFALL      0.06     0.15     8.69     0  00:52        0.15
  YS02005672           OUTFALL      0.04     0.11     8.44     0  00:51        0.11
  YS02005669           OUTFALL      0.05     0.14     8.85     0  00:52        0.14
  YS02005666           OUTFALL      0.05     0.12     8.80     0  00:52        0.12
  YS02005663           OUTFALL      0.05     0.14     8.87     0  00:52        0.14
  YS02005660           OUTFALL      0.06     0.15     8.97     0  00:52        0.15
  YS02005657           OUTFALL      0.00     0.00     8.74     0  00:00        0.00
  YS02005652           OUTFALL      0.07     0.19     8.81     0  00:52        0.19
  YS02005649           OUTFALL      0.09     0.23     8.93     0  00:50        0.23
  YS02005646           OUTFALL      0.09     0.22     8.22     0  00:50        0.22
  YS02005643           OUTFALL      0.08     0.23     8.79     0  00:52        0.23
  YS02005641           OUTFALL      0.06     0.17     8.86     0  00:52        0.17
  YS02005638           OUTFALL      0.06     0.17     8.82     0  00:52        0.17
  YS02005635           OUTFALL      0.05     0.14     8.81     0  00:52        0.14
  YS02005632           OUTFALL      0.05     0.13     8.69     0  00:52        0.13
  YS02005629           OUTFALL      0.04     0.11     8.59     0  00:51        0.11
  YS02005626           OUTFALL      0.04     0.10     8.63     0  00:51        0.10
  YS02005623           OUTFALL      0.04     0.12     8.59     0  00:51        0.12
  YS02005620           OUTFALL      0.05     0.14     8.94     0  00:51        0.14
  YS02005617           OUTFALL      0.05     0.12     8.96     0  00:51        0.12
  YSB1103              OUTFALL      0.29     0.60     8.60     0  00:49        0.60
  YSB1229              OUTFALL      0.06     0.17     8.97     0  00:51        0.16
  YS02005548           OUTFALL      0.05     0.14     9.14     0  00:51        0.14
  YS02005552           OUTFALL      0.06     0.14     8.76     0  00:52        0.14
  YS02005555           OUTFALL      0.06     0.13     8.86     0  00:53        0.13
  YS02005558           OUTFALL      0.06     0.13     8.84     0  00:53        0.13
  YS02005561           OUTFALL      0.07     0.15     8.83     0  00:53        0.15
  YS02005564           OUTFALL      0.06     0.13     8.61     0  00:53        0.13
  YS02005567           OUTFALL      0.08     0.17     8.70     0  00:53        0.17
  YS02005570           OUTFALL      0.09     0.19     8.91     0  00:53        0.19
  YS02005574           OUTFALL      0.12     0.28     9.12     0  00:53        0.28
  YS02005578           OUTFALL      0.09     0.21     8.98     0  00:53        0.21
  WS02005134           OUTFALL      0.00     0.00     8.74     0  00:00        0.00
  YS02005581           OUTFALL      0.12     0.30     9.10     0  00:50        0.30
  YS02005584           OUTFALL      0.13     0.30     9.26     0  00:49        0.30
  YS02005593           OUTFALL      0.24     0.28     9.00     0  01:04        0.28
  YS02005596           OUTFALL      0.15     0.30     8.84     0  00:45        0.30
  YS02005374           OUTFALL      0.14     0.30     8.54     0  00:46        0.30
  YS02005375           OUTFALL      0.14     0.30     8.69     0  00:46        0.30
  YS02005607           OUTFALL      0.13     0.30     7.53     0  00:47        0.30
  YS02005610           OUTFALL      0.08     0.22     8.83     0  00:52        0.22
  YS02005613           OUTFALL      0.14     0.30     8.58     0  00:49        0.30
  HS02003172           OUTFALL      0.20     0.49     5.94     0  00:53        0.49
  YS6395               OUTFALL      0.11     0.27     6.69     0  00:52        0.27
  YS6405               OUTFALL      0.18     0.41     3.86     0  00:52        0.41
  WSC                  OUTFALL      0.62     0.80     5.00     0  00:38        0.80
  JiankangQianchi      STORAGE      2.79     4.21     5.01     0  01:10        4.21
  CaochengTiaoxuchi    STORAGE      0.91     1.40     6.90     0  01:01        1.40
  XierchiQianchi       STORAGE      7.02     7.47     5.47     0  02:02        7.47
  
  
  *******************
  Node Inflow Summary
  *******************
  
  -------------------------------------------------------------------------------------------------
                                  Maximum  Maximum                  Lateral       Total        Flow
                                  Lateral    Total  Time of Max      Inflow      Inflow     Balance
                                   Inflow   Inflow   Occurrence      Volume      Volume       Error
  Node                 Type           LPS      LPS  days hr:min    10^6 ltr    10^6 ltr     Percent
  -------------------------------------------------------------------------------------------------
  WS02001211           JUNCTION      7.35   222.53     0  00:34      0.0538        1.18       4.295
  WS02001212           JUNCTION      0.00   231.47     0  01:27           0        1.14       2.398
  WS02001213           JUNCTION      0.00   242.75     0  01:26           0        1.12       3.317
  WS02003069           JUNCTION      0.32  2521.06     0  00:51     0.00234        10.7       0.662
  WS02003072           JUNCTION      0.00  2521.23     0  00:51           0        10.7       0.566
  WS02003073           JUNCTION      1.82  3089.61     0  00:51      0.0133        14.1       0.274
  WS02003076           JUNCTION      0.00  3089.52     0  00:51           0          14       0.300
  WS02003060           JUNCTION     16.53  2520.82     0  00:51       0.121        10.8       0.536
  WS02003066           JUNCTION      0.00  2308.70     0  00:51           0        9.68       0.105
  WS02003059           JUNCTION      0.00   249.09     0  01:26           0        1.12       5.224
  WS02003115           JUNCTION      0.00   477.11     0  01:06           0        1.23       0.368
  WS02003116           JUNCTION      0.00   272.50     0  00:24           0        1.13       0.729
  WS02003118           JUNCTION      0.11   228.06     0  00:23    3.27e-06        1.13       1.327
  WS02003215           JUNCTION      0.16  2640.10     0  00:52    1.91e-05        3.28       0.814
  WS02003110           JUNCTION      0.18   503.05     0  00:52     0.00132       0.661       1.121
  WS02003111           JUNCTION      1.51   981.38     0  00:52      0.0107        1.82       0.393
  WS02005155           JUNCTION      0.38   502.81     0  00:52     0.00279        0.66       1.497
  WS02005154           JUNCTION    502.34   502.34     0  00:52       0.656       0.658       0.896
  WS02005193           JUNCTION      0.00   177.99     0  00:28           0      0.0153     137.652
  WS02005196           JUNCTION      0.00   138.27     0  00:28           0     0.00568     559.950
  WS02003067           JUNCTION      0.00  1874.08     0  00:50           0        7.63       0.194
  WS02004401           JUNCTION      0.00  1106.11     0  01:36           0        5.76       0.548
  WS02004402           JUNCTION      0.00  1106.13     0  01:36           0        5.74       0.485
  WS02004403           JUNCTION      0.00  1106.32     0  01:36           0        5.72       0.422
  WS02004404           JUNCTION      0.16  1106.38     0  01:36     0.00119         5.7       0.289
  WS02004406           JUNCTION      0.00  1106.51     0  01:36           0        5.68       0.722
  WS02004409           JUNCTION      0.06  1822.08     0  00:49    5.56e-05        8.31       0.423
  WS02004410           JUNCTION      0.00  1873.98     0  00:50           0        8.38       0.426
  WS02004411           JUNCTION      0.00  1873.83     0  00:50           0        7.74       0.445
  WS02004412           JUNCTION      0.00  1874.07     0  00:50           0        7.71       0.443
  WS02004413           JUNCTION      0.00  1874.05     0  00:50           0        7.67       0.570
  WS02004405           JUNCTION      0.18  1106.66     0  01:36    0.000436         5.7       0.427
  WS02006109           JUNCTION      1.95  1308.01     0  00:00     0.00965        6.68       0.338
  WS02006110           JUNCTION      0.36  1105.72     0  01:36    0.000292        5.92      -0.330
  WS02006111           JUNCTION      0.04  1176.04     0  00:00     1.2e-05        5.91      -0.299
  WS02006112           JUNCTION      0.48  2307.30     0  00:00    2.64e-05        5.93       0.278
  WS02006113           JUNCTION      0.07  1105.70     0  01:36    4.25e-05         5.9      -0.358
  WS02006115           JUNCTION      0.00  1366.62     0  00:00           0        5.81       0.567
  WS02006116           JUNCTION      0.35  1106.36     0  01:36    0.000431        5.78       0.469
  WS02006230           JUNCTION     10.45  1027.05     0  00:49      0.0753        3.59       0.460
  WS02006231           JUNCTION      0.56   453.36     0  01:01     0.00151        2.09       0.776
  WS02006232           JUNCTION      0.27   453.58     0  01:21    0.000146        2.11       0.855
  WS02006234           JUNCTION      0.09   453.36     0  01:21     2.7e-06        2.12       0.579
  WS02006235           JUNCTION      0.27   415.20     0  00:52    0.000522        2.17       0.506
  WS02006238           JUNCTION      0.00   415.39     0  00:52           0        2.18       0.337
  WS02006240           JUNCTION      0.00   415.11     0  00:52           0         2.2       0.748
  WS02006242           JUNCTION      0.37   415.17     0  00:52    0.000112        2.22       0.888
  WS02006243           JUNCTION      0.70   285.46     0  00:25     0.00146        1.66       0.975
  WS02006245           JUNCTION      0.00   292.96     0  00:25           0        1.67       0.800
  WS02006247           JUNCTION      0.00   304.46     0  00:26           0        1.68       0.713
  WS02006248           JUNCTION      0.00   344.91     0  00:36           0        2.04       0.544
  WS02006249           JUNCTION      0.00  1391.00     0  00:52           0        5.47       0.309
  WS02006239           JUNCTION      0.00   415.25     0  00:52           0        2.19       0.581
  WS02006251           JUNCTION      0.08  1756.74     0  00:52    0.000564        5.78       0.315
  WS02006252           JUNCTION      0.00   765.94     0  00:52           0        2.05      -0.017
  WS02006253           JUNCTION     59.55  1756.67     0  00:52      0.0759        4.71       0.437
  WS02006256           JUNCTION      0.00   300.00     0  00:32           0        1.62       0.063
  WS02004138           JUNCTION      0.00   190.00     0  00:29           0        1.17       0.258
  WS02004139           JUNCTION      0.32   190.32     0  00:33     0.00235        1.17       3.567
  WS02004407           JUNCTION      0.08  1822.05     0  00:49    8.94e-05        8.37       0.329
[...]
  WS02003080WS02003077        0.67      0.67      1.68      1.69         0.01
  WS02003073WS02003076        0.78      0.78      1.45      0.30         0.01
  HS02004901HS02004770        0.78      0.78      0.78      0.08         0.01
  HS02004876HS02004881        0.80      0.82      0.80      1.63         0.80
  HS02004870HS02004876        0.73      0.73      0.82      0.01         0.01
  HS02004049HS02004052        0.20      0.20      0.22      0.01         0.01
  HS02004048HS02004049        0.31      0.43      0.31      0.50         0.31
  HS02004046HS02004048        0.21      0.21      0.43      0.01         0.01
  HS02004043HS02004046        0.17      0.17      0.24      0.07         0.07
  HS02004041HS02004043        0.05      0.05      0.16      0.01         0.01
  HS02004038HS02004041        0.01      0.01      0.04      0.01         0.01
  HS02004028HS02004027        0.01      0.16      0.01      0.18         0.01
  HS02003143HS02003065        0.61      0.61      0.85      0.01         0.01
  HS02004842HS02004848        0.64      0.64      0.87      0.01         0.01
  HS02004837HS02004842        0.68      0.68      0.87      0.01         0.01
  HS02004830HS02004837        0.68      0.68      0.73      0.01         0.01
  HS02004824HS02004830        0.73      0.73      0.78      0.01         0.01
  HS02004817HS02004824        0.78      0.78      1.56      0.01         0.01
  HS02004770HS02004777        0.78      0.78      0.79      0.01         0.01
  HS02004799HS02004480        0.96      0.96      1.05      1.05         0.01
  HS02004792HS02004799        0.89      0.89      1.05      0.01         0.01
  HS02004788HS02004792        0.72      0.72      0.89      0.01         0.01
  HS02004785HS02004788        0.72      0.73      0.72      1.49         0.60
  HS02004777HS02004785        0.73      0.73      0.79      0.01         0.01
  HS02004480HS02004478        0.89      0.96      0.89      1.70         0.89
  HS02004479HS02004480        0.96      0.96      1.00      0.01         0.01
  HS02003013HS02003010        0.41      0.41      0.46      0.27         0.27
  HS02003010HS02003007        0.39      0.40      0.41      0.44         0.39
  HS02003007HS02003004        0.41      0.41      0.51      0.23         0.24
  HS02003004HS02003001        0.01      0.51      0.01      1.16         0.01
  HS02003065HS02003056        0.83      0.83      0.99      0.01         0.01
  HS02003042HS02003053        0.36      0.36      0.78      0.01         0.01
  HS02003028HS02003021        0.28      0.28      0.35      0.01         0.01
  HS02003021HS02003018        0.38      0.38      0.39      0.14         0.15
  HS02003018HS02003017        0.40      0.40      0.40      0.11         0.08
  HS02003017HS02003013        0.40      0.40      0.41      0.33         0.31
  HS02004862HS02004870        0.70      0.70      0.73      0.24         0.24
  HS02004848HS02004852        0.64      0.64      0.67      0.02         0.01
  HS02004856HS02004862        0.65      0.65      0.70      0.01         0.01
  HS02004852HS02004856        0.67      0.67      0.70      0.02         0.01
  HS02004024HS02004022        0.01      0.01      0.20      0.01         0.01
  HS02004022HS02004021        0.20      0.20      0.30      0.01         0.01
  HS02004021HS02004019        0.30      0.30      0.40      0.24         0.24
  HS02004019HS02003162        0.01      0.40      0.01      0.43         0.01
  HS02004052HS02004053        0.22      0.22      0.22      0.24         0.22
  HS02003122HS02003125        1.51      1.51      1.51      0.21         0.23
  HS02003119HS02003122        1.50      1.50      1.51      0.01         0.01
  HS02003116HS02003119        1.32      1.32      1.50      0.01         0.01
  HS02003111HS02003116        0.01      0.01      1.39      0.01         0.01
  HS02004018HS02004019        0.24      0.24      0.40      0.01         0.01
  HS02003056HS02003136        0.86      0.86      1.53      0.01         0.01
  HS02004017HS02004018        0.22      0.22      0.24      0.01         0.01
  HS02004013HS02004017        0.06      0.06      0.22      0.07         0.05
  HS02004010HS02004013        0.01      0.01      0.06      0.01         0.01
  HS02004802HS02004478        0.90      0.90      0.98      0.25         0.01
  HS02004478WS02006287        0.76      0.76      0.96      0.01         0.01
  HS02003079HS02003084        0.03      0.03      0.05      0.01         0.01
  HS02003148HS02003145        0.01      0.01      0.18      0.05         0.01
  HS02003145HS02003143        0.18      0.18      0.58      0.17         0.16
  HS02003136WS02003203        1.54      1.54      1.65      0.01         0.01
  HS02003084HS02003088        0.05      0.05      0.08      0.01         0.01
  HS02003077HS02003079        0.01      0.01      0.03      0.01         0.01
  HS02003108HS02003111        0.21      0.21      0.45      0.01         0.01
  HS02003100HS02003108        0.11      0.11      0.21      0.01         0.01
  HS02003088HS02003100        0.09      0.09      0.11      0.05         0.04
  HS02004817HS02004807        0.95      0.95      1.56      0.01         0.01
  HS02004807HS02004802        0.95      0.95      0.97      0.41         0.42
  HS02003053HS02003056        0.78      0.78      0.99      0.01         0.01
  HS02003039HS02003042        0.43      0.44      0.47      0.27         0.02
  HS02003036HS02003039        0.22      0.22      0.27      0.01         0.01
  YS02001759YS02001757        0.20      0.20      0.20      0.20         0.17
  YS02001762YS02001759        0.20      0.20      0.20      0.18         0.16
  YS02001765YS02001762        0.19      0.19      0.20      0.11         0.09
  YS02001770YS02001767        0.19      0.21      0.19      0.75         0.18
  YS02001774YS02001770        0.20      0.20      0.23      0.01         0.01
  YS02001779YS02001774        0.17      0.17      0.23      0.01         0.01
  YS02001767YS02001765        0.19      0.19      0.19      0.22         0.18
  YS02006561YS02001783        0.53      0.53      0.74      0.01         0.01
  YS02001783YS02001784        0.71      0.74      0.71      0.91         0.71
  YS02001784YS02001785        0.59      0.71      0.59      1.26         0.59
  YS02001790YS02001791        0.01      0.01      0.01      0.70         0.01
  YS02001910YS02001907        0.77      0.77      0.99      0.10         0.11
  YS02001786YS02001788        0.01      0.59      0.01      1.06         0.01
  YS02001915YS02001910        0.67      0.67      0.77      0.01         0.01
  YS02001918YS02001915        0.57      0.57      0.67      0.01         0.01
  YS02001923YS02001920        0.51      0.51      0.59      0.01         0.01
  YS02001926YS02001923        0.24      0.24      0.26      0.01         0.01
  YS02001929YS02001926        0.12      0.12      0.26      0.01         0.01
  YS02001932YS02001929        0.08      0.08      0.12      0.01         0.01
  YS02001935YS02001932        0.01      0.01      0.04      0.01         0.01
  YS02001920YS02001918        0.57      0.57      0.59      0.01         0.01
  YS02003290YS02003287        1.60      1.60      1.65      0.01         0.01
  YS02003294YS02003290        1.60      1.60      1.69      0.02         0.01
  YS02003297YS02003294        1.68      1.68      1.68      0.31         0.28
  YS02003275YS02003272        1.41      1.56      1.41      1.62         1.41
  YS02003300YS02003297        1.61      1.61      1.66      0.01         0.01
  YS02003303YS02003300        1.58      1.58      1.62      0.01         0.01
  YS02005550YS02005551        0.01      0.01      0.01      0.04         0.01
  YS02005568YS02005569        0.01      0.01      0.01      0.15         0.01
  YS02005582YS02005583        0.25      0.46      0.25      0.64         0.25
  YS02003272YS02003269        0.01      1.50      0.01      1.62         0.01
  YS02003278YS02003275        1.59      1.66      1.59      1.74         1.59
  YS02003281YS02003278        1.63      1.63      1.65      1.59         1.59
  YS02003284YS02003281        1.63      1.63      1.65      1.03         0.41
  YS02003287YS02003284        1.64      1.64      1.67      0.01         0.05
  YS02003306YS02003303        1.58      1.58      1.60      0.56         0.56
  YS02003309YS02003306        1.47      1.47      1.58      0.01         0.01
  YS02005600YS02005375        0.24      0.24      0.26      0.26         0.24
  YS02005384YS02005593        0.01      1.28      0.01      1.34         0.01
  YS02005595YS02005596        0.31      0.32      0.31      0.35         0.31
  YS02005612YS02005613        0.11      0.11      0.99      0.31         0.01
  YS02005553YS02005554        0.01      0.01      0.01      0.15         0.01
  YS02005556YS02005557        0.01      0.01      0.01      0.18         0.01
  YS02005562YS02005563        0.01      0.01      0.01      0.11         0.01
  YS02005571YS02005572        0.01      0.29      0.01      0.45         0.01
  YS02005572YS02005574        0.01      0.01      0.01      0.09         0.01
  YS02005579YS02005580        0.17      0.34      0.17      0.50         0.17
  YS02005580YS02005581        0.15      0.17      0.15      0.19         0.15
  YS02005583YS02005584        0.25      0.25      0.26      0.26         0.25
  YS02006553YS02006556        0.88      0.88      1.02      0.01         0.01
  YS02006556YS02006558        0.95      0.95      1.06      0.01         0.01
  YSB6556YSB1171              1.09      1.09      1.63      0.01         0.01
  YSB1202YSB1205              1.30      1.30      1.36      0.01         0.01
  YSB1205YSB1209              1.36      1.36      1.36      0.96         0.91
  YSB1209YSB1212              1.33      1.36      1.33      1.45         1.33
  YSB1212YSB1215              1.33      1.33      1.33      0.66         0.65
  YSB1215YSB1218              1.33      1.33      1.33      0.74         0.73
  YSB1218YSB1221              1.30      1.30      1.33      1.07         1.07
  YSB1221YSB1224              1.33      1.33      1.34      1.30         1.29
  YSB1224YSB1105              0.85      1.37      0.85      1.45         0.85
  YSB1189YSB1186              0.66      0.66      0.78      0.21         0.21
  YS02001907YS02006553        1.27      1.27      1.37      0.01         0.01
  YS02006562YS02006558        0.74      0.74      1.06      0.01         0.01
  YS02006558YS02006561        0.62      0.87      0.62      1.20         0.62
  YS6184YS6187                0.18      0.18      0.19      0.11         0.12
  YS6360YS6363                0.14      0.19      0.14      0.81         0.14
  YS6354YS6360                0.25      0.25      0.26      0.26         0.24
  YS6351YS6354                0.25      0.28      0.25      0.49         0.25
  YS6350YS6351                0.28      0.31      0.28      0.84         0.28
  YS6348YS6350                0.29      0.29      0.31      0.27         0.26
  YS6344YS6348                0.29      0.29      0.36      0.01         0.01
  YS6363YS6132                0.14      0.14      0.31      0.01         0.01
  YS6137YS6132                0.23      0.23      0.43      0.01         0.01
  YS6189YS6137                0.23      0.23      0.25      1.61         0.01
  YS6187YS6189                0.18      0.18      0.19      0.35         0.01
  YS6179YS6184                0.16      0.16      0.18      0.01         0.01
  YS6176YS6179                0.11      0.11      0.16      0.01         0.01
  YS6171YS6176                0.13      0.13      0.16      0.01         0.02
  YS6168YS6171                0.13      0.13      0.13      0.10         0.10
  YS6164YS6168                0.09      0.09      0.13      0.01         0.01
  YS6162YS6164                0.12      0.12      0.14      0.01         0.01
  YS6132YS6404                0.01      0.20      0.01      0.35         0.01
  YSB1106YSB1105              0.07      0.22      0.07      0.27         0.07
  YSB1109YSB1106              0.22      0.29      0.22      0.44         0.22
  YSB1112YSB1109              0.29      0.29      0.29      0.32         0.28
  YSB1115YSB1112              0.27      0.27      0.29      0.10         0.10
  YSB1118YSB1115              0.30      0.30      0.30      0.32         0.30
  YSB1121YSB1118              0.30      0.33      0.30      0.44         0.30
  YSB1124YSB1121              0.30      0.30      0.33      0.01         0.01
  YSB1105YSB1103              0.15      0.15      0.21      0.21         0.15
  YS02001745YS02001748        0.01      0.01      0.01      0.01         0.01
  YS02001748YS02001751        0.01      0.01      0.04      0.01         0.01
  YS02001751YS02001754        0.04      0.04      0.11      0.01         0.01
  YS02001754YS02001757        0.12      0.12      0.20      0.01         0.01
  YS02001882YS02001884        0.67      0.67      0.68      0.01         0.01
  YS02001884YS02001887        0.71      0.71      0.72      0.01         0.01
  YS02001890YS02001895        0.66      0.66      0.77      0.01         0.01
  YS02001895YS02001898        0.65      0.65      0.66      0.01         0.01
  YS02001898YS02001901        0.66      0.66      0.71      0.01         0.01
  YS02001901YS02001904        0.70      0.70      0.71      0.01         0.01
  YS02001904YS02001907        0.70      0.70      1.03      0.01         0.01
  YS02001887YS02001890        0.74      0.74      0.75      0.19         0.01
  YS02004309YS02004307        0.19      0.97      0.19      0.95         0.19
  YS02004319YS02004316        0.36      0.36      0.38      0.01         0.01
  YS02005376YS02005378        1.61      1.61      1.83      0.01         0.01
  YS02005378YS02005381        1.80      1.80      1.83      0.21         0.01
  YS02005381YS02005384        1.28      1.28      1.80      1.82         0.01
  YS02005598YS02005374        0.24      0.24      0.26      0.26         0.24
  YS02005602YS02005603        0.22      0.55      0.22      0.69         0.22
  YS02005603YS02005607        0.22      0.22      0.24      0.24         0.22
  YS02005618YS02005619        0.01      0.01      0.01      0.02         0.01
  YS02005621YS02005622        0.01      0.01      0.01      0.07         0.01
  YS02005624YS02005625        0.01      0.01      0.26      0.04         0.01
  YS02005630YS02005631        0.01      0.06      0.01      0.10         0.01
  YS02005633YS02005634        0.01      0.05      0.01      0.07         0.01
  YS02005636YS02005637        0.01      0.09      0.01      0.13         0.01
  YS02005639YS02005640        0.01      0.06      0.01      0.09         0.01
  YS02005627YS02005628        0.01      0.05      0.01      0.27         0.01
  YS02005644YS02005645        0.01      0.17      0.01      0.20         0.01
  YS02005650YS02005651        0.01      0.14      0.01      0.22         0.01
  YS02005653YS02005654        0.11      0.11      0.12      0.12         0.11
  YS02005654YS02005655        0.01      0.12      0.01      0.21         0.01
  YS02005658YS02005659        0.01      0.07      0.01      0.10         0.01
  YS02005661YS02005662        0.01      0.12      0.01      0.24         0.01
  YS02005664YS02005665        0.01      0.13      0.01      0.50         0.01
  YS02005667YS02005668        0.01      0.01      0.53      0.14         0.01
  YS02005647YS02005648        0.01      0.29      0.01      0.44         0.01
  YS02004312YS02004309        0.61      0.61      0.97      0.01         0.01
  YS02004314YS02004312        0.40      0.40      0.61      0.01         0.01
  YS02004316YS02004314        0.38      0.38      0.40      0.32         0.32
  YS02004320YS02004319        0.01      0.01      0.28      0.01         0.01
  YS6404YS6401                0.01      0.01      0.01      0.79         0.01
  YSB1132YSB1135              0.65      0.65      0.71      0.01         0.01
  YSB1135YSB1138              0.71      0.71      0.74      0.01         0.01
  YSB1138YSB1141              0.74      0.74      0.84      0.44         0.45
  YSB1141YSB1145              0.82      0.82      0.85      0.43         0.40
  YSB1148YSB1151              0.94      0.94      1.20      0.01         0.01
  YSB1151YSB1154              1.05      1.05      1.39      0.01         0.01
  YSB1154YSB6556              1.09      1.09      1.39      0.45         0.01
  YSB1128YSB1132              0.62      0.62      0.65      0.01         0.01
  YSB1145YSB1148              0.85      0.85      0.94      0.01         0.01
  YSB1198YSB1195              0.32      0.32      0.60      0.01         0.01
  YSB1195YSB1192              0.60      0.60      0.63      0.01         0.01
  YSB1192YSB1189              0.63      0.63      0.66      0.01         0.01
  YSB1186YSB1183              0.72      0.72      0.85      0.01         0.01
  YSB1183YSB1180              0.85      0.85      0.89      0.25         0.26
  YSB1180YSB1177              0.89      0.89      1.26      0.01         0.01
  YSB1177YSB1174              1.26      1.26      1.53      0.26         0.27
  YSB1174YSB1171              1.20      1.20      1.59      0.19         0.19
  YSB1171HS02004479           0.93      0.93      1.36      0.01         0.01
  HS02003001HS02003166        0.01      0.01      0.05      0.01         0.01
  YS02004307HS02004052        0.01      0.01      0.22      0.01         0.01
  HS02004881HS02006253        0.80      0.80      1.54      0.01         0.01
  WS0200404049WS6136          0.21      0.21      0.30      0.01         0.01
  HS02003125WS02003215        1.51      1.51      1.54      0.01         0.01
  YS02001793JiankangQianchi        0.01      0.01      2.02      0.01         0.01
  YS02001757CaochengTiaoxuchi        0.20      0.20      0.60      0.13         0.13
  WS02004041WS6409            1.19      1.19      1.28      1.28         1.19
  WSF200WS02003060            0.31      0.31      0.59      0.01         0.01
  HS02004053WS02004407        0.22      0.22      1.22      0.01         0.01
  HS02003036HS02003028        0.22      0.22      0.33      0.01         0.01
  
  
  ***************
  Pumping Summary
  ***************
  
  ---------------------------------------------------------------------------------------------------------
                                                  Min       Avg       Max     Total     Power    % Time Off
                        Percent   Number of      Flow      Flow      Flow    Volume     Usage    Pump Curve
  Pump                 Utilized   Start-Ups       LPS       LPS       LPS  10^6 ltr     Kw-hr    Low   High
  ---------------------------------------------------------------------------------------------------------
  CaochengSewagePump1     76.76           1      0.00    200.00    200.00     1.125      8.77    0.0    0.0
  CaochengSewagePump2     43.58           1      0.00    200.00    200.00     0.638      5.35    0.0    0.0
  CaochengRainPump1       40.39           1      0.00    683.00    683.00     2.021      3.25    0.0   35.0
  CaochengRainPump2       34.71           1      0.00    683.00    683.00     1.737      2.62    0.0   40.8
  JiankangSewagePump      73.71           1      0.00    300.00    300.00     1.620     25.43    0.0    0.0
  JiankangRainPump1       39.84           5      0.00   1000.00   1000.00     2.918     19.29    0.0    0.0
  JiankangRainPump2        0.00           0      0.00      0.00      0.00     0.000      0.00    0.0    0.0
  XierchiSewagePump1      91.80           1      0.00     95.00     95.00     0.639      3.95    0.0    0.0
  XierchiSewagePump2      76.22           1      0.00     95.00     95.00     0.530      3.11    0.0    0.0
  XierchiSewagePump3       0.00           0      0.00      0.00      0.00     0.000      0.00    0.0    0.0
  XierchiSewagePump4       0.00           0      0.00      0.00      0.00     0.000      0.00    0.0    0.0
  

  Analysis begun on:  Sun Oct 23 02:28:13 2022
  Analysis ended on:  Sun Oct 23 03:01:05 2022
  Total elapsed time: 00:32:52