
  EPA STORM WATER MANAGEMENT MODEL - VERSION 5.1 (Build 5.3.0.dev0)
  --------------------------------------------------------------

  WARNING 04: minimum elevation drop used for Conduit WS02004404WS02004405
  WARNING 03: negative offset ignored for Link YS02001904YS02001907
  
  *********************************************************
  NOTE: The summary statistics displayed in this report are
  based on results found at every computational time step,  
  not just on results from each reporting time step.
  *********************************************************
  
  ****************
  Analysis Options
  ****************
  Flow Units ............... LPS
  Process Models:
    Rainfall/Runoff ........ YES
    RDII ................... NO
    Snowmelt ............... NO
    Groundwater ............ NO
    Flow Routing ........... YES
    Ponding Allowed ........ NO
    Water Quality .......... NO
  Infiltration Method ...... HORTON
  Flow Routing Method ...... DYNWAVE
  Surcharge Method ......... EXTRAN
  Starting Date ............ 03/31/2017 00:00:00
  Ending Date .............. 03/31/2017 03:00:00
  Antecedent Dry Days ...... 8.0
  Report Time Step ......... 00:00:30
  Wet Time Step ............ 00:01:00
  Dry Time Step ............ 00:01:00
  Routing Time Step ........ 30.00 sec
  Variable Time Step ....... YES
  Maximum Trials ........... 8
  Number of Threads ........ 6
  Head Tolerance ........... 0.001500 m
  
  
  **************************        Volume         Depth
  Runoff Quantity Continuity     hectare-m            mm
  **************************     ---------       -------
  Initial LID Storage ......         0.470         3.988
  Total Precipitation ......        11.461        97.262
  Evaporation Loss .........         0.000         0.000
  Infiltration Loss ........         0.264         2.244
  Surface Runoff ...........         8.871        75.281
  Final Storage ............         2.808        23.831
  Continuity Error (%) .....        -0.105
  
  
  **************************        Volume        Volume
  Flow Routing Continuity        hectare-m      10^6 ltr
  **************************     ---------     ---------
  Dry Weather Inflow .......         0.172         1.716
  Wet Weather Inflow .......         8.858        88.582
  Groundwater Inflow .......         0.000         0.000
  RDII Inflow ..............         0.000         0.000
  External Inflow ..........         0.033         0.332
  External Outflow .........         4.803        48.034
  Flooding Loss ............         4.025        40.253
  Evaporation Loss .........         0.000         0.000
  Exfiltration Loss ........         0.000         0.000
  Initial Stored Volume ....         0.303         3.031
  Final Stored Volume ......         0.567         5.673
  Continuity Error (%) .....        -0.319
  
  
  *************************
  Highest Continuity Errors
  *************************
  Node WS02005193 (57.89%)
  Node YS02001884 (28.02%)
  Node YS02004320 (6.24%)
  Node WS02003059 (4.91%)
  Node HS02003116 (4.62%)
  
  
  ***************************
  Time-Step Critical Elements
  ***************************
  Link YS02005655YS02005657 (40.80%)
  Link WS02006252WS02006251 (22.62%)
  Link WS02004041WS6409 (17.31%)
  Link WS02003073WS02003076 (2.10%)
  Link WS02006280WS02006229 (2.03%)
  
  
  ********************************
  Highest Flow Instability Indexes
  ********************************
  Link WS02003200WS02003201 (76)
  Link WS02006238WS02006235 (76)
  Link WS02003215WS02003116 (71)
  Link WS02003122WS02003187 (71)
  Link WS02003203WS02003091 (67)
  
  
  *************************
  Routing Time Step Summary
  *************************
  Minimum Time Step           :     0.50 sec
  Average Time Step           :     0.98 sec
  Maximum Time Step           :    30.00 sec
  Percent in Steady State     :     0.00
  Average Iterations per Step :     6.54
  Percent Not Converging      :    42.25
  
  
  ***************************
  Subcatchment Runoff Summary
  ***************************
  
  ------------------------------------------------------------------------------------------------------------------------------
                            Total      Total      Total      Total     Imperv       Perv      Total       Total     Peak  Runoff
                           Precip      Runon       Evap      Infil     Runoff     Runoff     Runoff      Runoff   Runoff   Coeff
  Subcatchment                 mm         mm         mm         mm         mm         mm         mm    10^6 ltr      LPS
  ------------------------------------------------------------------------------------------------------------------------------
  sub0                      97.26       0.00       0.00       0.74      88.10       5.76      93.86        0.08    59.55   0.965
  sub1                      97.26       0.00       0.00       1.22      79.78       8.50      88.27        0.59   391.06   0.908
  sub2                      97.26       0.00       0.00       3.57      39.80      18.33      58.13        0.54   317.36   0.598
  sub3                      97.26       0.00       0.00       3.60      41.05      18.04      59.09        1.33   711.63   0.608
  sub4                      97.26       0.00       0.00       1.16      79.84       8.42      88.26        1.84   988.23   0.907
  sub5                      97.26       0.00       0.00       0.74      86.40       5.67      92.07        1.04   692.79   0.947
  sub6                      97.26       0.00       0.00       0.74      85.63       5.63      91.26        2.36  1478.07   0.938
  sub7                      97.26       0.00       0.00       0.95      85.43       7.32      92.76        0.31   226.83   0.954
  sub8                      97.26       0.00       0.00       0.95      85.12       7.30      92.42        0.59   414.13   0.950
  sub9                      97.26       0.00       0.00       0.95      85.05       7.29      92.35        0.44   309.09   0.949
  sub10                     97.26       0.00       0.00       0.84      85.66       6.47      92.13        1.02   683.99   0.947
  sub11                     97.26       0.00       0.00       0.84      86.16       6.51      92.67        1.08   764.24   0.953
  sub12                     97.26       0.00       0.00       1.46      76.94       9.91      86.84        0.76   582.00   0.893
  sub13                     97.26       0.00       0.00       3.55      59.53      24.88      84.41        1.00   634.15   0.868
  sub14                     97.26       0.00       0.00       0.95      85.00       7.29      92.28        0.88   607.43   0.949
  sub15                     97.26       0.00       0.00       3.09      48.87      17.29      66.16        1.14   752.64   0.680
  sub16                     97.26       0.00       0.00       3.30      45.23      18.66      63.88        0.67   486.04   0.657
  sub17                     97.26       0.00       0.00       3.22      44.81      17.66      62.47        0.54   387.80   0.642
  sub18                     97.26       0.00       0.00       0.95      85.64       7.34      92.98        0.74   549.39   0.956
  sub19                     97.26       0.00       0.00       3.16      47.92      17.99      65.91        0.21   149.11   0.678
  sub20                     97.26       0.00       0.00       0.95      85.40       7.32      92.73        0.65   468.14   0.953
  sub21                     97.26       0.00       0.00       1.33      79.69       9.37      89.06        0.45   339.91   0.916
  sub22                     97.26       0.00       0.00       4.03      37.57      22.87      60.44        3.82  2425.57   0.621
  sub23                     97.26       0.00       0.00       3.58      40.75      19.72      60.47        2.88  1961.30   0.622
  sub24                     97.26       0.00       0.00       1.56      75.82      10.61      86.43        3.10  2308.34   0.889
  sub25                     97.26       0.00       0.00       0.74      88.24       5.77      94.01        1.22   971.38   0.967
  sub26                     97.26       0.00       0.00       2.59      58.66      15.87      74.53        1.06   881.09   0.766
  sub27                     97.26       0.00       0.00       0.95      84.90       7.28      92.18        1.33   911.92   0.948
  sub28                     97.26       0.00       0.00       0.84      85.77       6.48      92.26        1.45   983.86   0.949
  sub29                     97.26       0.00       0.00       0.84      84.51       6.40      90.90        1.46   902.46   0.935
  sub30                     97.26       0.00       0.00       0.84      86.87       6.56      93.43        2.11  1609.00   0.961
  sub31                     97.26       0.00       0.00       1.79      78.56      13.80      92.36        1.96  1515.79   0.950
  sub32                     97.26       0.00       0.00       0.84      86.41       6.53      92.94        1.85  1349.72   0.956
  sub33                     97.26       0.00       0.00       1.44      78.38      10.09      88.47        1.62  1246.89   0.910
  sub34                     97.26       0.00       0.00       4.15      25.46      21.33      46.79        1.04   775.25   0.481
  sub35                     97.26       0.00       0.00       0.84      87.81       6.62      94.43        0.33   288.52   0.971
  sub36                     97.26       0.00       0.00       2.41      62.19      15.02      77.22        0.67   540.62   0.794
  sub37                     97.26       0.00       0.00       3.67      37.57      20.40      57.96        0.44   358.16   0.596
  sub38                     97.26       0.00       0.00       3.45      43.72      20.07      63.79        1.21  1012.41   0.656
  sub39                     97.26       0.00       0.00       0.84      87.44       6.59      94.03        1.00   821.02   0.967
  sub40                     97.26       0.00       0.00       0.84      87.48       6.60      94.08        1.10   905.67   0.967
  sub41                     97.26       0.00       0.00       1.78      73.08      11.97      85.06        1.64  1296.87   0.875
  sub42                     97.26       0.00       0.00       0.95      86.44       7.41      93.85        0.94   766.38   0.965
  sub43                     97.26       0.00       0.00       3.78      47.19      24.09      71.28        0.58   415.89   0.733
  sub44                     97.26       0.00       0.00       0.74      86.80       5.69      92.49        1.05   718.80   0.951
  sub45                     97.26       0.00       0.00       1.91      69.42      12.13      81.55        1.49  1067.69   0.838
  sub46                     97.26       0.00       0.00       4.28      13.13      18.69      31.82        0.22   161.29   0.327
  sub47                     97.26       0.00       0.00       0.84      86.47       6.53      93.00        0.71   521.01   0.956
  sub48                     97.26       0.00       0.00       0.95      85.44       7.32      92.76        0.71   514.67   0.954
  sub49                     97.26       0.00       0.00       0.84      86.05       6.50      92.55        0.84   592.26   0.952
  sub50                     97.26       0.00       0.00       0.84      86.10       6.50      92.60        0.65   457.64   0.952
  sub51                     97.26       0.00       0.00       0.84      86.62       6.54      93.16        0.44   327.73   0.958
  sub52                     97.26       0.00       0.00       0.74      86.89       5.70      92.59        1.00   697.41   0.952
  sub53                     97.26       0.00       0.00       0.84      86.42       6.53      92.94        0.94   685.27   0.956
  sub54                     97.26       0.00       0.00       0.74      86.33       5.67      92.00        0.55   362.88   0.946
  sub55                     97.26       0.00       0.00       0.84      85.71       6.48      92.19        0.74   497.45   0.948
  sub56                     97.26       0.00       0.00       2.00      74.57      14.53      89.10        1.27   761.16   0.916
  sub57                     97.26       0.00       0.00       3.26      64.22      23.21      87.44        0.57   344.85   0.899
  sub58                     97.26       0.00       0.00       4.44       8.34      18.11      26.45        0.98   564.95   0.272
  sub59                     97.26       0.00       0.00       4.23       5.66      14.92      20.58        0.47   248.75   0.212
  sub60                     97.26       0.00       0.00       1.26      82.54       9.69      92.23        1.21   868.17   0.948
  sub61                     97.26       0.00       0.00       1.79      77.97      13.63      91.59        1.68  1206.89   0.942
  sub62                     97.26       0.00       0.00       0.84      85.52       6.47      91.98        2.52  1679.53   0.946
  sub67                     97.26       0.00       0.00       0.84      85.73       6.48      92.21        1.72  1161.15   0.948
  sub68                     97.26       0.00       0.00       1.55      76.04      10.60      86.65        2.38  1652.26   0.891
  sub71                     97.26       0.00       0.00       0.84      84.66       6.41      91.06        2.38  1484.52   0.936
  sub72                     97.26       0.00       0.00       0.74      84.52       5.57      90.09        1.24   716.95   0.926
  sub73                     97.26       0.00       0.00       2.31      64.36      14.66      79.02        0.08    62.28   0.812
  sub74                     97.26       0.00       0.00       3.25      48.60      19.41      68.01        0.11    85.55   0.699
  sub75                     97.26       0.00       0.00       3.09      50.36      18.39      68.75        0.15   122.67   0.707
  sub76                     97.26       0.00       0.00       2.00      69.49      13.09      82.58        0.20   158.80   0.849
  sub77                     97.26       0.00       0.00       1.90      70.91      12.49      83.40        0.13   106.70   0.857
  sub78                     97.26       0.00       0.00       1.37      82.11      10.57      92.68        0.25   193.51   0.953
  sub79                     97.26       0.00       0.00       2.56      64.00      17.13      81.13        0.21   155.78   0.834
  sub80                     97.26       0.00       0.00       3.35      50.61      21.07      71.68        0.21   160.92   0.737
  sub81                     97.26       0.00       0.00       3.66      45.70      22.49      68.19        0.21   153.76   0.701
  sub82                     97.26       0.00       0.00       3.62      43.96      21.74      65.69        0.20   149.47   0.675
  sub83                     97.26       0.00       0.00       3.67      41.50      21.48      62.97        0.21   163.19   0.647
  sub84                     97.26       0.00       0.00       3.46      44.58      20.11      64.69        0.35   257.53   0.665
  sub85                     97.26       0.00       0.00       2.52      71.62      19.10      90.73        0.40   291.70   0.933
  sub86                     97.26       0.00       0.00       2.75      61.82      18.36      80.18        0.39   287.05   0.824
  sub87                     97.26       0.00       0.00       3.61      55.87      25.23      81.10        0.24   179.47   0.834
  sub88                     97.26       0.00       0.00       3.51      56.85      24.63      81.48        0.25   185.66   0.838
  sub89                     97.26       0.00       0.00       3.22      57.71      22.01      79.72        0.21   165.57   0.820
  sub90                     97.26       0.00       0.00       2.84      64.76      20.35      85.11        0.21   161.93   0.875
  sub91                     97.26       0.00       0.00       2.84      62.61      19.79      82.39        0.15   122.47   0.847
  sub92                     97.26       0.00       0.00       3.21      57.07      21.93      79.00        0.12   100.70   0.812
  sub93                     97.26       0.00       0.00       3.22      58.59      22.52      81.11        0.15   125.44   0.834
  sub94                     97.26       0.00       0.00       3.23      60.26      23.06      83.32        0.18   146.16   0.857
  sub95                     97.26       0.00       0.00       3.02      54.26      18.95      73.21        0.11    93.02   0.753
  sub96                     97.26       0.00       0.00       2.41      62.38      15.15      77.53        0.14   127.38   0.797
  sub97                     97.26       0.00       0.00       4.30      14.92      20.01      34.94        0.08    74.29   0.359
  sub98                     97.26       0.00       0.00       4.40       8.67      18.85      27.52        0.09    70.26   0.283
  sub99                     97.26       0.00       0.00       4.15       4.69      14.79      19.47        0.07    50.05   0.200
  sub100                    97.26       0.00       0.00       4.13       4.60      14.35      18.95        0.07    44.93   0.195
  sub101                    97.26       0.00       0.00       4.13       4.59      14.33      18.92        0.06    42.88   0.195
  sub102                    97.26       0.00       0.00       4.25       6.12      15.83      21.95        0.07    40.75   0.226
  sub103                    97.26       0.00       0.00       4.40       5.98      17.14      23.11        0.11    64.08   0.238
  sub104                    97.26       0.00       0.00       4.15       4.98      14.38      19.36        0.10    61.40   0.199
  sub105                    97.26       0.00       0.00       8.52      18.04      52.83      70.87        0.40   157.92   0.729
  sub106                    97.26       0.00       0.00       6.19      12.18      35.29      47.47        0.24   118.20   0.488
  sub107                    97.26       0.00       0.00       4.23       4.32      15.26      19.58        0.14    92.58   0.201
  sub108                    97.26       0.00       0.00       3.94       3.17      12.18      15.35        0.14   109.81   0.158
  sub109                    97.26       0.00       0.00       3.77       7.88      11.85      19.73        0.28   223.55   0.203
  sub110                    97.26       0.00       0.00       1.99      70.07      13.16      83.23        1.75  1323.52   0.856
  sub111                    97.26       0.00       0.00       2.77      55.37      16.51      71.88        0.62   469.52   0.739
  sub112                    97.26       0.00       0.00       2.31      63.98      14.52      78.49        0.62   476.12   0.807
  sub113                    97.26       0.00       0.00       1.56      76.11      10.66      86.77        0.60   460.55   0.892
  sub114                    97.26       0.00       0.00       1.45      77.52       9.98      87.51        0.58   446.13   0.900
  sub115                    97.26       0.00       0.00       1.31      80.39       9.46      89.85        0.66   504.83   0.924
  sub116                    97.26       0.00       0.00       3.71      35.51      19.76      55.27        0.10    74.71   0.568
  sub117                    97.26       0.00       0.00       3.75      34.05      19.84      53.89        0.25   183.84   0.554
  

  ***********************
  LID Performance Summary
  ***********************

  --------------------------------------------------------------------------------------------------------------------
                                         Total      Evap     Infil   Surface    Drain    Initial     Final  Continuity
                                        Inflow      Loss      Loss   Outflow   Outflow   Storage   Storage       Error
  Subcatchment      LID Control             mm        mm        mm        mm        mm        mm        mm           %
  --------------------------------------------------------------------------------------------------------------------
  sub1              BioRententionCell     97.26      0.00      2.89      0.00      0.00     23.50    117.94       -0.05
  sub2              BioRententionCell     97.26      0.00      2.89      0.00      0.00     23.50    117.94       -0.05
  sub3              BioRententionCell     97.26      0.00      2.89      0.00      0.00     23.50    117.94       -0.05
  sub12             BioRententionCell     97.26      0.00      2.89      0.00      0.00     23.50    117.94       -0.05
  sub13             BioRententionCell     97.26      0.00      2.89      0.00      0.00     23.50    117.94       -0.05
  sub15             BioRententionCell     97.26      0.00      2.89      0.00      0.00     23.50    117.94       -0.05
  sub16             BioRententionCell     97.26      0.00      2.89      0.00      0.00     23.50    117.94       -0.05
  sub17             BioRententionCell     97.26      0.00      2.89      0.00      0.00     23.50    117.94       -0.05
  sub19             BioRententionCell     97.26      0.00      2.89      0.00      0.00     23.50    117.94       -0.05
  sub21             BioRententionCell     97.26      0.00      2.89      0.00      0.00     23.50    117.94       -0.05
  sub22             BioRententionCell     97.26      0.00      2.89      0.00      0.00     23.50    117.94       -0.05
  sub23             BioRententionCell     97.26      0.00      2.89      0.00      0.00     23.50    117.94       -0.05
  sub24             BioRententionCell     97.26      0.00      2.89      0.00      0.00     23.50    117.94       -0.05
  sub26             BioRententionCell     97.26      0.00      2.89      0.00      0.00     23.50    117.94       -0.05
  sub33             BioRententionCell     97.26      0.00      2.89      0.00      0.00     23.50    117.94       -0.05
  sub34             BioRententionCell     97.26      0.00      2.89      0.00      0.00     23.50    117.94       -0.05
  sub36             BioRententionCell     97.26      0.00      2.89      0.00      0.00     23.50    117.94       -0.05
  sub37             BioRententionCell     97.26      0.00      2.89      0.00      0.00     23.50    117.94       -0.05
  sub38             BioRententionCell     97.26      0.00      2.89      0.00      0.00     23.50    117.94       -0.05
  sub41             BioRententionCell     97.26      0.00      2.89      0.00      0.00     23.50    117.94       -0.05
  sub43             BioRententionCell     97.26      0.00      2.89      0.00      0.00     23.50    117.94       -0.05
  sub45             BioRententionCell     97.26      0.00      2.89      0.00      0.00     23.50    117.94       -0.05
  sub46             BioRententionCell     97.26      0.00      2.89      0.00      0.00     23.50    117.94       -0.05
  sub58             BioRententionCell     97.26      0.00      2.89      0.00      0.00     23.50    117.94       -0.05
  sub59             BioRententionCell     97.26      0.00      2.89      0.00      0.00     23.50    117.94       -0.05
  sub68             BioRententionCell     97.26      0.00      2.89      0.00      0.00     23.50    117.94       -0.05
  sub73             BioRententionCell     97.26      0.00      2.89      0.00      0.00     23.50    117.94       -0.05
  sub74             BioRententionCell     97.26      0.00      2.89      0.00      0.00     23.50    117.94       -0.05
  sub75             BioRententionCell     97.26      0.00      2.89      0.00      0.00     23.50    117.94       -0.05
  sub76             BioRententionCell     97.26      0.00      2.89      0.00      0.00     23.50    117.94       -0.05
  sub77             BioRententionCell     97.26      0.00      2.89      0.00      0.00     23.50    117.94       -0.05
  sub79             BioRententionCell     97.26      0.00      2.89      0.00      0.00     23.50    117.94       -0.05
  sub80             BioRententionCell     97.26      0.00      2.89      0.00      0.00     23.50    117.94       -0.05
  sub81             BioRententionCell     97.26      0.00      2.89      0.00      0.00     23.50    117.94       -0.05
  sub82             BioRententionCell     97.26      0.00      2.89      0.00      0.00     23.50    117.94       -0.05
  sub83             BioRententionCell     97.26      0.00      2.89      0.00      0.00     23.50    117.94       -0.05
  sub84             BioRententionCell     97.26      0.00      2.89      0.00      0.00     23.50    117.94       -0.05
  sub86             BioRententionCell     97.26      0.00      2.89      0.00      0.00     23.50    117.94       -0.05
  sub87             BioRententionCell     97.26      0.00      2.89      0.00      0.00     23.50    117.94       -0.05
  sub88             BioRententionCell     97.26      0.00      2.89      0.00      0.00     23.50    117.94       -0.05
  sub89             BioRententionCell     97.26      0.00      2.89      0.00      0.00     23.50    117.94       -0.05
  sub90             BioRententionCell     97.26      0.00      2.89      0.00      0.00     23.50    117.94       -0.05
  sub91             BioRententionCell     97.26      0.00      2.89      0.00      0.00     23.50    117.94       -0.05
  sub92             BioRententionCell     97.26      0.00      2.89      0.00      0.00     23.50    117.94       -0.05
  sub93             BioRententionCell     97.26      0.00      2.89      0.00      0.00     23.50    117.94       -0.05
  sub94             BioRententionCell     97.26      0.00      2.89      0.00      0.00     23.50    117.94       -0.05
  sub95             BioRententionCell     97.26      0.00      2.89      0.00      0.00     23.50    117.94       -0.05
  sub96             BioRententionCell     97.26      0.00      2.89      0.00      0.00     23.50    117.94       -0.05
  sub97             BioRententionCell     97.26      0.00      2.89      0.00      0.00     23.50    117.94       -0.05
  sub98             BioRententionCell     97.26      0.00      2.89      0.00      0.00     23.50    117.94       -0.05
  sub99             BioRententionCell     97.26      0.00      2.89      0.00      0.00     23.50    117.94       -0.05
  sub100            BioRententionCell     97.26      0.00      2.89      0.00      0.00     23.50    117.94       -0.05
  sub101            BioRententionCell     97.26      0.00      2.89      0.00      0.00     23.50    117.94       -0.05
  sub102            BioRententionCell     97.26      0.00      2.89      0.00      0.00     23.50    117.94       -0.05
  sub103            BioRententionCell     97.26      0.00      2.89      0.00      0.00     23.50    117.94       -0.05
  sub104            BioRententionCell     97.26      0.00      2.89      0.00      0.00     23.50    117.94       -0.05
  sub106            BioRententionCell     97.26      0.00      2.89      0.00      0.00     23.50    117.94       -0.05
  sub107            BioRententionCell     97.26      0.00      2.89      0.00      0.00     23.50    117.94       -0.05
  sub108            BioRententionCell     97.26      0.00      2.89      0.00      0.00     23.50    117.94       -0.05
  sub109            BioRententionCell     97.26      0.00      2.89      0.00      0.00     23.50    117.94       -0.05
  sub110            BioRententionCell     97.26      0.00      2.89      0.00      0.00     23.50    117.94       -0.05
  sub111            BioRententionCell     97.26      0.00      2.89      0.00      0.00     23.50    117.94       -0.05
  sub112            BioRententionCell     97.26      0.00      2.89      0.00      0.00     23.50    117.94       -0.05
  sub113            BioRententionCell     97.26      0.00      2.89      0.00      0.00     23.50    117.94       -0.05
  sub114            BioRententionCell     97.26      0.00      2.89      0.00      0.00     23.50    117.94       -0.05
  sub115            BioRententionCell     97.26      0.00      2.89      0.00      0.00     23.50    117.94       -0.05
  sub116            BioRententionCell     97.26      0.00      2.89      0.00      0.00     23.50    117.94       -0.05
  sub117            BioRententionCell     97.26      0.00      2.89      0.00      0.00     23.50    117.94       -0.05
  
  ******************
  Node Depth Summary
  ******************
  
  ---------------------------------------------------------------------------------
                                 Average  Maximum  Maximum  Time of Max    Reported
                                   Depth    Depth      HGL   Occurrence   Max Depth
  Node                 Type       Meters   Meters   Meters  days hr:min      Meters
  ---------------------------------------------------------------------------------
  WS02001211           JUNCTION     1.03     2.18     7.02     0  00:46        1.78
  WS02001212           JUNCTION     0.80     1.87     6.94     0  00:46        1.55
  WS02001213           JUNCTION     1.04     2.13     6.89     0  00:46        1.85
  WS02003069           JUNCTION     0.99     1.69     6.28     0  00:50        1.68
  WS02003072           JUNCTION     1.04     1.59     5.96     0  00:50        1.58
  WS02003073           JUNCTION     1.26     1.71     5.77     0  00:50        1.70
  WS02003076           JUNCTION     1.00     1.36     5.58     0  00:50        1.36
  WS02003060           JUNCTION     0.88     1.68     6.62     0  00:50        1.67
  WS02003066           JUNCTION     0.53     1.17     6.72     0  00:50        1.16
  WS02003059           JUNCTION     1.11     1.94     6.62     0  00:50        1.92
  WS02003115           JUNCTION     2.02     2.76     9.62     0  00:33        2.73
  WS02003116           JUNCTION     2.17     3.03     9.74     0  00:24        2.93
  WS02003118           JUNCTION     2.15     2.90     9.52     0  00:24        2.90
  WS02003215           JUNCTION     2.04     2.80     9.66     0  00:33        2.80
  WS02003110           JUNCTION     1.66     2.38     9.64     0  00:51        2.38
  WS02003111           JUNCTION     1.78     2.35     9.44     0  00:33        2.35
  WS02005155           JUNCTION     1.64     2.53     9.84     0  00:51        2.53
  WS02005154           JUNCTION     1.41     2.48    10.11     0  00:51        2.48
  WS02005193           JUNCTION     1.45     3.10    10.92     0  00:45        3.03
  WS02005196           JUNCTION     1.42     3.31    11.16     0  00:28        3.00
  WS02003067           JUNCTION     0.86     1.48     6.80     0  00:50        1.48
  WS02004401           JUNCTION     1.50     2.51     8.51     0  00:48        2.46
  WS02004402           JUNCTION     1.50     2.52     8.48     0  00:48        2.46
  WS02004403           JUNCTION     1.48     2.52     8.45     0  00:48        2.47
  WS02004404           JUNCTION     1.53     2.57     8.42     0  00:48        2.52
  WS02004406           JUNCTION     1.48     2.52     8.35     0  00:48        2.49
  WS02004409           JUNCTION     1.25     2.31     8.08     0  00:48        2.30
  WS02004410           JUNCTION     1.14     2.10     7.82     0  00:50        2.09
  WS02004411           JUNCTION     1.05     1.88     7.56     0  00:50        1.88
  WS02004412           JUNCTION     0.95     1.65     7.29     0  00:50        1.64
  WS02004413           JUNCTION     0.99     1.56     7.03     0  00:50        1.55
  WS02004405           JUNCTION     1.51     2.55     8.40     0  00:48        2.51
  WS02006109           JUNCTION     1.94     2.64     9.26     0  00:43        2.64
  WS02006110           JUNCTION     1.75     2.49     9.07     0  00:48        2.48
  WS02006111           JUNCTION     1.17     2.00     8.70     0  00:55        1.99
  WS02006112           JUNCTION     1.79     2.68     8.56     0  00:00        2.68
  WS02006113           JUNCTION     1.24     1.99     8.89     0  00:53        1.99
  WS02006115           JUNCTION     1.47     2.41     8.55     0  00:48        2.38
  WS02006116           JUNCTION     1.52     2.49     8.53     0  00:48        2.45
  WS02006230           JUNCTION     2.01     2.65     9.39     0  00:39        2.65
  WS02006231           JUNCTION     1.61     2.19     9.31     0  01:03        2.19
  WS02006232           JUNCTION     1.65     2.18     9.22     0  00:39        2.18
  WS02006234           JUNCTION     1.49     1.96     9.12     0  00:37        1.96
  WS02006235           JUNCTION     1.47     1.93     9.10     0  01:12        1.93
  WS02006238           JUNCTION     1.48     1.93     9.08     0  01:04        1.93
  WS02006240           JUNCTION     1.27     1.63     8.92     0  01:03        1.62
  WS02006242           JUNCTION     1.25     1.55     8.82     0  00:26        1.55
  WS02006243           JUNCTION     1.09     1.39     8.81     0  00:27        1.37
  WS02006245           JUNCTION     1.02     1.27     8.76     0  00:32        1.26
  WS02006247           JUNCTION     1.00     1.23     8.73     0  01:41        1.23
  WS02006248           JUNCTION     0.91     1.10     8.69     0  00:27        1.10
  WS02006249           JUNCTION     0.91     1.09     8.69     0  00:27        1.09
  WS02006239           JUNCTION     1.38     1.79     9.00     0  00:40        1.78
  WS02006251           JUNCTION     1.35     2.21     9.88     0  00:45        2.18
  WS02006252           JUNCTION     0.92     1.50     9.74     0  00:45        1.50
  WS02006253           JUNCTION     1.62     3.22    10.86     0  00:51        3.21
  WS02006256           JUNCTION     1.87     2.35     9.28     0  00:16        2.35
  WS02004138           JUNCTION     0.12     0.14     7.39     0  00:33        0.14
  WS02004139           JUNCTION     0.97     2.14     7.05     0  00:46        1.71
  WS02004407           JUNCTION     0.90     2.04     8.35     0  00:48        1.96
  WS02006228           JUNCTION     2.15     3.03     9.68     0  00:49        3.03
  WS02006229           JUNCTION     2.25     3.23     9.92     0  00:48        3.22
  WS02006280           JUNCTION     0.96     1.75    10.02     0  00:49        1.74
  WS02006284           JUNCTION     1.14     1.95    10.35     0  00:48        1.94
  WS02006287           JUNCTION     0.88     1.75    10.70     0  00:46        1.74
  WS02003091           JUNCTION     2.89     4.43    10.23     0  00:00        3.91
  WS02003203           JUNCTION     2.83     3.83     9.82     0  00:00        3.83
  WS6145               JUNCTION     0.51     2.42    10.53     0  00:49        2.31
  WS6147               JUNCTION     0.43     2.30    10.57     0  00:49        2.15
  WS6150               JUNCTION     0.42     2.25    10.58     0  00:49        2.12
  WS6152               JUNCTION     0.43     2.20    10.54     0  00:49        2.15
  WS6155               JUNCTION     0.39     2.10    10.50     0  00:49        2.10
  WS6156               JUNCTION     0.37     2.05    10.52     0  00:49        2.05
  WS6136               JUNCTION     0.44     1.90    10.85     0  00:49        1.90
  WS6140               JUNCTION     0.57     2.47    10.41     0  00:50        2.44
  WS6142               JUNCTION     0.51     2.35    10.42     0  00:50        2.32
  WS6325               JUNCTION     0.80     2.74    10.39     0  00:50        2.73
  WS6327               JUNCTION     0.65     2.58    10.40     0  00:50        2.57
  WS6329               JUNCTION     0.60     2.51    10.40     0  00:50        2.50
  WS6332               JUNCTION     0.52     2.53    10.56     0  00:48        2.35
  WS6158               JUNCTION     0.35     2.05    10.59     0  00:49        2.05
  WS6335               JUNCTION     0.51     2.60    10.67     0  00:48        2.32
  WS6338               JUNCTION     0.45     2.55    10.75     0  00:48        2.20
  WS6340               JUNCTION     0.40     2.50    10.84     0  00:48        2.23
  WS6342               JUNCTION     0.32     2.50    11.10     0  00:48        2.50
  WS6135               JUNCTION     0.95     2.89    10.39     0  00:50        2.88
  WS6396               JUNCTION     0.61     2.02     9.58     0  00:50        2.01
  WS6399               JUNCTION     0.38     1.37     8.80     0  00:50        1.36
  WS02003082           JUNCTION     1.40     1.93     7.00     0  01:01        1.92
  WS02003077           JUNCTION     0.49     0.85     5.85     0  00:50        0.84
  WS02003080           JUNCTION     0.92     1.31     6.24     0  00:50        1.30
  WS02003083           JUNCTION     1.78     2.41     7.44     0  00:56        2.40
  WS02003084           JUNCTION     1.93     2.60     7.70     0  00:51        2.60
  WS02003085           JUNCTION     2.01     2.72     7.89     0  00:54        2.71
  WS02003086           JUNCTION     2.25     3.02     8.22     0  00:55        3.01
  WS02003087           JUNCTION     2.52     3.36     8.57     0  00:55        3.35
  WS02003088           JUNCTION     2.71     4.14     9.43     0  00:00        4.07
  WS02003089           JUNCTION     2.84     4.34     9.80     0  00:00        4.02
  WS02003090           JUNCTION     3.05     4.12     9.55     0  00:00        4.05
  WS02003081           JUNCTION     1.14     1.61     6.66     0  00:50        1.61
  WS02003122           JUNCTION     2.34     3.11     9.48     0  00:59        3.10
  WS02003187           JUNCTION     2.36     3.11     9.44     0  00:23        3.11
  WS02003188           JUNCTION     2.33     2.97     9.23     0  00:44        2.97
  WS02003190           JUNCTION     2.31     2.84     9.04     0  00:24        2.84
  WS02003193           JUNCTION     2.29     2.85     9.09     0  00:23        2.85
  WS02003195           JUNCTION     2.31     2.93     9.18     0  00:23        2.93
  WS02003196           JUNCTION     2.42     3.11     9.29     0  00:30        3.10
  WS02003198           JUNCTION     2.45     3.18     9.37     0  00:51        3.18
  WS02003200           JUNCTION     2.22     2.99     9.42     0  00:30        2.93
  WS02003201           JUNCTION     2.49     3.22     9.36     0  00:30        3.22
  WS02003202           JUNCTION     2.64     4.17    10.23     0  00:00        3.48
  WS02004041           JUNCTION     0.67     0.98     5.34     0  00:50        0.98
  WSA6400              JUNCTION     1.21     2.42     8.26     0  00:50        2.40
  WS6400               JUNCTION     0.55     1.69     8.35     0  00:50        1.69
  WSF208               JUNCTION     0.90     1.95     8.04     0  00:50        1.93
  WSF207               JUNCTION     0.78     1.70     7.83     0  00:50        1.69
  WSF206               JUNCTION     0.86     1.74     7.67     0  00:50        1.74
  WSF205               JUNCTION     0.79     1.61     7.52     0  00:50        1.60
  WSF204               JUNCTION     1.31     2.17     7.32     0  00:50        2.15
  WSF203               JUNCTION     0.68     1.37     7.08     0  00:50        1.35
  WSF202               JUNCTION     0.60     1.20     6.92     0  00:50        1.19
  WSF201               JUNCTION     0.51     1.05     6.77     0  00:50        1.03
  WSF200               JUNCTION     0.68     1.46     6.69     0  00:50        1.45
  HS02004901           JUNCTION     0.69     1.42    11.24     0  00:44        1.42
  HS02004881           JUNCTION     0.58     2.15    11.18     0  00:45        1.95
  HS02004876           JUNCTION     0.71     2.19    11.22     0  00:51        2.19
  HS02004870           JUNCTION     0.61     2.10    11.39     0  00:46        2.07
  HS02004862           JUNCTION     0.61     2.00    11.38     0  00:46        2.00
  HS02004856           JUNCTION     0.65     2.07    11.50     0  00:46        2.04
  HS02004852           JUNCTION     0.59     2.08    11.59     0  00:46        1.98
  HS02004848           JUNCTION     0.56     2.07    11.67     0  00:46        1.92
  HS02004842           JUNCTION     0.88     2.22    11.49     0  00:46        2.22
  HS02004837           JUNCTION     0.59     1.99    11.57     0  00:46        1.93
  HS02004830           JUNCTION     0.67     2.03    11.50     0  00:46        1.99
  HS02004824           JUNCTION     0.71     2.01    11.41     0  00:46        2.01
  HS02004817           JUNCTION     1.19     2.44    11.29     0  00:46        2.41
  HS02004807           JUNCTION     0.86     1.92    11.09     0  00:46        1.92
  HS02004802           JUNCTION     0.87     1.83    10.96     0  00:46        1.80
  HS02004799           JUNCTION     0.93     1.76    10.97     0  00:44        1.76
  HS02004792           JUNCTION     0.72     1.60    11.12     0  00:44        1.60
  HS02004788           JUNCTION     0.54     1.42    11.32     0  00:44        1.42
  HS02004785           JUNCTION     0.58     1.49    11.39     0  00:44        1.49
  HS02004777           JUNCTION     0.70     1.48    11.28     0  00:44        1.48
  HS02004770           JUNCTION     0.68     1.42    11.25     0  00:44        1.42
  HS02004480           JUNCTION     0.84     1.69    10.93     0  00:46        1.64
  HS02004479           JUNCTION     0.88     1.70    10.91     0  00:46        1.67
  HS02004478           JUNCTION     0.75     1.59    10.82     0  00:46        1.58
  HS02004053           JUNCTION     0.33     1.90    10.67     0  00:48        1.10
  HS02004052           JUNCTION     0.41     1.50    11.15     0  00:48        1.38
  HS02004049           JUNCTION     0.24     0.97    11.65     0  00:48        0.86
  HS02004048           JUNCTION     0.56     1.70    12.60     0  00:48        1.70
  HS02004046           JUNCTION     0.51     1.80    13.52     0  00:50        1.80
  HS02004043           JUNCTION     0.32     2.24    14.93     0  00:50        2.24
  HS02004041           JUNCTION     0.19     1.99    17.43     0  00:50        1.54
  HS02004038           JUNCTION     0.15     0.48    19.16     0  00:52        0.48
  HS02004036           JUNCTION     0.00     0.00    22.46     0  00:00        0.00
  HS02004034           JUNCTION     0.00     0.00    26.83     0  00:00        0.00
  HS02004028           JUNCTION     0.18     0.51    37.36     0  00:49        0.51
  HS02004027           JUNCTION     0.15     0.34    36.47     0  00:49        0.34
  HS02004026           JUNCTION     0.15     0.35    35.75     0  00:49        0.34
  HS02004024           JUNCTION     0.15     0.41    34.63     0  00:49        0.41
  HS02004022           JUNCTION     0.21     0.80    33.84     0  00:48        0.80
  HS02004021           JUNCTION     0.24     0.81    32.54     0  00:47        0.81
  HS02004019           JUNCTION     0.30     0.80    31.76     0  00:45        0.80
  HS02004018           JUNCTION     0.20     0.60    33.81     0  00:48        0.60
  HS02004017           JUNCTION     0.18     0.53    34.37     0  00:49        0.53
  HS02004013           JUNCTION     0.11     0.41    35.54     0  00:51        0.40
  HS02004010           JUNCTION     0.05     0.19    38.05     0  00:51        0.18
  HS02003174           JUNCTION     0.20     0.51     6.04     0  00:53        0.51
  HS02003171           JUNCTION     0.23     0.57     6.25     0  00:52        0.57
  HS02003170           JUNCTION     0.26     0.52     6.97     0  00:52        0.51
  HS02003168           JUNCTION     0.14     0.35     6.85     0  00:52        0.35
  HS02003166           JUNCTION     0.25     0.53     7.00     0  00:51        0.53
  HS02003162           JUNCTION     0.20     0.42    30.67     0  00:46        0.42
  HS02003160           JUNCTION     0.16     0.40    28.46     0  00:51        0.40
  HS02003150           JUNCTION     0.17     0.43    26.45     0  00:51        0.43
  HS02003148           JUNCTION     0.20     0.57    22.31     0  00:51        0.57
  HS02003145           JUNCTION     0.26     0.81    14.68     0  00:48        0.81
  HS02003143           JUNCTION     0.37     0.80    13.27     0  00:41        0.80
  HS02003138           JUNCTION     0.24     0.59     7.08     0  01:39        0.59
  HS02003136           JUNCTION     1.45     2.28    10.00     0  00:00        2.28
  HS02003125           JUNCTION     1.57     2.38     9.83     0  00:33        2.32
  HS02003122           JUNCTION     1.61     2.45     9.89     0  00:51        2.44
  HS02003119           JUNCTION     1.38     2.50    10.22     0  00:33        2.29
  HS02003116           JUNCTION     1.06     2.43    10.55     0  00:33        1.92
  HS02003111           JUNCTION     0.48     1.04    10.06     0  00:51        1.04
  HS02003108           JUNCTION     0.39     1.30    10.41     0  00:51        1.05
  HS02003100           JUNCTION     0.28     1.45    10.68     0  00:51        0.99
  HS02003088           JUNCTION     0.24     1.63    10.92     0  00:51        1.02
  HS02003084           JUNCTION     0.12     1.64    11.07     0  00:51        0.87
  HS02003079           JUNCTION     0.08     1.60    11.11     0  00:51        0.80
  HS02003077           JUNCTION     0.03     1.48    11.22     0  00:51        0.59
  HS02003065           JUNCTION     0.69     1.68    10.91     0  00:52        1.67
  HS02003056           JUNCTION     0.73     1.77    10.72     0  00:50        1.77
  HS02003053           JUNCTION     0.52     1.66    10.96     0  00:38        1.66
  HS02003042           JUNCTION     0.37     1.69    11.35     0  00:47        1.46
  HS02003039           JUNCTION     0.42     1.87    11.52     0  00:47        1.56
  HS02003036           JUNCTION     0.25     1.41    11.47     0  00:47        1.37
  HS02003028           JUNCTION     0.37     1.40    11.14     0  00:46        1.40
  HS02003021           JUNCTION     0.40     1.55    10.92     0  00:46        1.49
  HS02003018           JUNCTION     0.41     1.48    10.69     0  00:47        1.48
  HS02003017           JUNCTION     0.41     1.48    10.64     0  00:46        1.48
  HS02003013           JUNCTION     0.40     1.47    10.52     0  00:46        1.42
  HS02003010           JUNCTION     0.42     1.44    10.24     0  00:46        1.30
  HS02003007           JUNCTION     0.37     1.31     9.93     0  00:46        1.09
  HS02003004           JUNCTION     0.45     1.05     9.37     0  00:46        0.99
  HS02003001           JUNCTION     0.13     0.32     8.61     0  00:52        0.32
  YS02001738           JUNCTION     0.00     0.00     8.89     0  00:00        0.00
  YS02001739           JUNCTION     0.00     0.00     8.37     0  00:00        0.00
  YS02001742           JUNCTION     0.00     0.00     8.49     0  00:00        0.00
  YS02001745           JUNCTION     0.16     0.69     8.20     0  00:52        0.63
  YS02001748           JUNCTION     0.22     2.27     9.35     0  00:52        1.07
  YS02001751           JUNCTION     0.24     2.20     9.08     0  00:51        1.23
  YS02001754           JUNCTION     0.28     2.20     8.81     0  00:50        2.20
  YS02001762           JUNCTION     0.50     2.15     8.55     0  00:50        2.15
  YS02001765           JUNCTION     0.48     2.10     8.55     0  00:50        2.10
  YS02001767           JUNCTION     0.50     2.03     8.52     0  00:50        2.03
  YS02001770           JUNCTION     0.56     1.95     8.44     0  00:50        1.95
  YS02001774           JUNCTION     0.63     2.05     8.47     0  00:50        2.01
  YS02001779           JUNCTION     0.38     1.68     8.37     0  00:50        1.68
  YS02001882           JUNCTION     0.82     1.82     8.53     0  00:44        1.69
  YS02001884           JUNCTION     0.92     1.88     8.50     0  00:44        1.79
  YS02001759           JUNCTION     0.50     2.21     8.57     0  00:50        2.21
  YS02001887           JUNCTION     1.00     1.89     8.43     0  00:44        1.87
  YS02001890           JUNCTION     1.02     1.81     8.32     0  00:44        1.81
  YS02001898           JUNCTION     0.79     1.56     8.30     0  00:57        1.56
  YS02001901           JUNCTION     0.89     1.68     8.29     0  00:46        1.67
  YS02001904           JUNCTION     0.87     1.64     8.27     0  00:46        1.64
  YS02001907           JUNCTION     1.19     1.96     8.25     0  00:45        1.96
  YS02001910           JUNCTION     1.02     2.01     8.52     0  00:51        2.01
  YS02001915           JUNCTION     0.87     2.00     8.72     0  00:51        2.00
  YS02001918           JUNCTION     0.60     1.81     8.88     0  00:47        1.72
  YS02001920           JUNCTION     0.68     2.11     9.12     0  00:47        1.81
  YS02001923           JUNCTION     0.50     2.03     9.29     0  00:47        1.58
  YS02001926           JUNCTION     0.49     1.90     9.35     0  00:47        1.43
  YS02001929           JUNCTION     0.35     1.78     9.47     0  00:47        1.21
  YS02001932           JUNCTION     0.25     1.77     9.57     0  00:51        1.11
  YS02001935           JUNCTION     0.19     1.75     9.68     0  00:51        1.74
  YS02001757           JUNCTION     0.47     2.10     8.36     0  00:50        2.10
  YS02001895           JUNCTION     0.78     1.57     8.31     0  00:46        1.56
  YS02005679           JUNCTION     0.00     0.00    10.24     0  00:00        0.00
  YS02005559           JUNCTION     0.05     0.12    10.07     0  00:52        0.12
  YS02005651           JUNCTION     0.06     0.17    10.94     0  00:51        0.17
  YS02005670           JUNCTION     0.08     0.21    10.67     0  00:51        0.21
  YS02005547           JUNCTION     0.04     0.10    10.64     0  00:51        0.10
  YS02005549           JUNCTION     0.05     0.15    11.06     0  00:51        0.15
  YS02005550           JUNCTION     0.06     0.16    10.79     0  00:51        0.16
  YS02005551           JUNCTION     0.04     0.10    10.47     0  00:51        0.10
  YS02005553           JUNCTION     0.06     0.16    10.52     0  00:52        0.16
  YS02005554           JUNCTION     0.03     0.09    10.32     0  00:52        0.09
  YS02005556           JUNCTION     0.06     0.16    10.22     0  00:52        0.16
  YS02005557           JUNCTION     0.04     0.09    10.05     0  00:52        0.09
  YS02005560           JUNCTION     0.04     0.10     9.84     0  00:52        0.10
  YS02005562           JUNCTION     0.07     0.16     9.90     0  00:52        0.16
  YS02005563           JUNCTION     0.04     0.09     9.75     0  00:52        0.09
  YS02005565           JUNCTION     0.06     0.14     9.85     0  00:52        0.14
  YS02005566           JUNCTION     0.05     0.12     9.51     0  00:52        0.12
  YS02005568           JUNCTION     0.07     0.16     9.66     0  00:52        0.16
  YS02005569           JUNCTION     0.05     0.12     9.45     0  00:52        0.12
  YS02005598           JUNCTION     0.23     1.07    10.91     0  00:47        1.07
  YS02005600           JUNCTION     0.22     1.02    10.68     0  00:47        1.02
  YS02005602           JUNCTION     0.51     2.15    10.43     0  00:47        2.15
  YS02005603           JUNCTION     0.16     1.11     9.24     0  00:47        0.58
  YS02005609           JUNCTION     0.07     0.18     9.08     0  00:52        0.18
  YS02005653           JUNCTION     0.10     0.68    11.65     0  00:50        0.61
  YS02005654           JUNCTION     0.12     0.55    11.30     0  00:50        0.49
  YS02005655           JUNCTION     0.05     0.13    10.77     0  00:52        0.13
  YS02005595           JUNCTION     0.31     1.36    11.04     0  00:46        1.36
  YS02005658           JUNCTION     0.09     0.29    11.20     0  00:52        0.29
  YS02005659           JUNCTION     0.05     0.14    10.80     0  00:52        0.14
  YS02005661           JUNCTION     0.13     0.55    11.26     0  00:51        0.55
  YS02005662           JUNCTION     0.05     0.13    10.75     0  00:52        0.13
  YS02005664           JUNCTION     0.14     0.57    11.16     0  00:52        0.57
  YS02005665           JUNCTION     0.05     0.12    10.69     0  00:52        0.12
  YS02005668           JUNCTION     0.06     0.15    10.31     0  00:52        0.15
  YS02005667           JUNCTION     0.31     0.96    10.98     0  00:51        0.96
  YS02005571           JUNCTION     0.18     0.51     9.99     0  00:53        0.51
  YS02005572           JUNCTION     0.12     0.26     9.62     0  00:53        0.26
  YS02005576           JUNCTION     0.09     0.21     9.97     0  00:53        0.21
  YS02005577           JUNCTION     0.08     0.19     9.67     0  00:53        0.19
  YS02005579           JUNCTION     0.09     0.25     9.87     0  00:52        0.25
  YS02005580           JUNCTION     0.06     0.17     9.70     0  00:52        0.17
  YS02005582           JUNCTION     0.09     0.27    10.35     0  00:52        0.27
  YS02005583           JUNCTION     0.06     0.17    10.16     0  00:52        0.17
  YS02005612           JUNCTION     0.35     1.15     9.28     0  00:51        1.15
  YS02005615           JUNCTION     0.05     0.14    11.63     0  00:51        0.14
  YS02005616           JUNCTION     0.04     0.11    10.93     0  00:51        0.11
  YS02005618           JUNCTION     0.08     0.24    11.10     0  00:51        0.24
  YS02005619           JUNCTION     0.05     0.14    10.69     0  00:51        0.14
  YS02005621           JUNCTION     0.09     0.28    11.39     0  00:51        0.27
  YS02005622           JUNCTION     0.04     0.11    11.08     0  00:51        0.11
  YS02005625           JUNCTION     0.04     0.10    11.12     0  00:51        0.10
  YS02005627           JUNCTION     0.11     0.44    11.37     0  00:50        0.40
  YS02005628           JUNCTION     0.04     0.11    11.01     0  00:51        0.11
  YS02005630           JUNCTION     0.10     0.55    11.62     0  00:50        0.44
  YS02005631           JUNCTION     0.05     0.13    11.00     0  00:52        0.13
  YS02005633           JUNCTION     0.09     0.45    11.58     0  00:51        0.35
  YS02005634           JUNCTION     0.05     0.14    10.97     0  00:51        0.14
  YS02005636           JUNCTION     0.11     0.53    11.53     0  00:51        0.53
  YS02005637           JUNCTION     0.06     0.16    10.92     0  00:52        0.16
  YS02005639           JUNCTION     0.10     0.48    11.11     0  00:50        0.42
  YS02005640           JUNCTION     0.06     0.16    10.49     0  00:52        0.16
  YS02005642           JUNCTION     0.08     0.22    11.05     0  00:52        0.22
  YS02005644           JUNCTION     0.17     0.87    11.98     0  00:50        0.87
  YS02005645           JUNCTION     0.09     0.22    11.03     0  00:50        0.22
  YS02005647           JUNCTION     0.20     1.03    11.92     0  00:50        1.03
  YS02005648           JUNCTION     0.08     0.23    11.02     0  00:50        0.23
  YS02005650           JUNCTION     0.12     0.54    11.43     0  00:51        0.54
  YS02005671           JUNCTION     0.04     0.10    10.33     0  00:51        0.10
  YS02005673           JUNCTION     0.08     0.23    10.58     0  00:51        0.23
  YS02005674           JUNCTION     0.05     0.14    10.04     0  00:51        0.14
  YS02005676           JUNCTION     0.00     0.00    10.24     0  00:00        0.00
  YS02005680           JUNCTION     0.05     0.13    10.23     0  00:51        0.13
  YS02005682           JUNCTION     0.00     0.00    10.06     0  00:00        0.00
  YS02005683           JUNCTION     0.03     0.08     9.98     0  00:51        0.08
  YS02005376           JUNCTION     0.62     1.01    11.10     0  00:32        1.01
  YS02005378           JUNCTION     1.16     1.62    11.14     0  00:32        1.62
  YS02005381           JUNCTION     1.08     1.57    11.20     0  00:32        1.57
  YS02005624           JUNCTION     0.22     0.50    11.38     0  00:51        0.50
  YS02005384           JUNCTION     0.35     0.82    10.48     0  00:32        0.53
  YS02005677           JUNCTION     0.05     0.14    10.22     0  00:51        0.14
  YSB1105              JUNCTION     0.24     0.53    10.01     0  00:53        0.53
  YSB1106              JUNCTION     0.29     1.59    11.43     0  00:49        0.79
  YSB1109              JUNCTION     0.36     1.59    11.53     0  00:49        1.13
  YSB1112              JUNCTION     0.38     1.64    11.78     0  00:49        1.38
  YSB1115              JUNCTION     0.35     1.81    12.11     0  00:49        1.35
  YSB1118              JUNCTION     0.37     1.80    12.34     0  00:49        1.48
  YSB1121              JUNCTION     0.44     1.70    12.37     0  00:49        1.70
  YSB1124              JUNCTION     0.30     1.60    12.43     0  00:49        1.55
  YSB1128              JUNCTION     0.48     1.85    12.43     0  00:44        1.50
  YSB1132              JUNCTION     0.53     1.90    12.35     0  00:44        1.62
  YSB1228              JUNCTION     0.05     0.16    11.00     0  00:51        0.16
  YSB1202              JUNCTION     0.43     1.50    12.39     0  00:46        1.46
  YSB1135              JUNCTION     0.66     1.97    12.23     0  00:44        1.81
  YSB1138              JUNCTION     0.75     1.90    12.07     0  00:44        1.90
  YSB1141              JUNCTION     0.77     1.90    11.72     0  00:44        1.86
  YSB1145              JUNCTION     0.78     1.89    11.58     0  00:44        1.85
  YSB1148              JUNCTION     0.84     1.92    11.41     0  00:44        1.89
  YSB1151              JUNCTION     1.01     2.01    11.24     0  00:44        2.00
  YSB1154              JUNCTION     1.15     2.10    11.16     0  00:46        2.10
  YSB1198              JUNCTION     0.23     1.60    12.39     0  00:45        1.17
  YSB1192              JUNCTION     0.42     1.90    12.17     0  00:45        1.70
  YSB6556              JUNCTION     0.98     1.80    10.97     0  00:44        1.80
  YSB1205              JUNCTION     0.60     1.65    12.35     0  00:46        1.65
  YSB1209              JUNCTION     0.59     1.65    12.22     0  00:46        1.63
  YSB1212              JUNCTION     0.49     1.60    12.13     0  00:46        1.52
  YSB1215              JUNCTION     0.48     1.70    12.05     0  00:46        1.55
  YSB1218              JUNCTION     0.47     1.75    11.94     0  00:46        1.55
  YSB1221              JUNCTION     0.48     1.77    11.73     0  00:46        1.42
  YSB1224              JUNCTION     0.46     1.23    11.07     0  00:46        1.21
  YSB1195              JUNCTION     0.37     1.90    12.28     0  00:45        1.59
  YSB1189              JUNCTION     0.53     1.80    11.96     0  00:45        1.80
  YSB1186              JUNCTION     0.57     1.94    11.81     0  00:45        1.74
  YSB1183              JUNCTION     0.70     2.05    11.64     0  00:45        1.88
  YSB1180              JUNCTION     0.73     1.95    11.46     0  00:45        1.83
  YSB1177              JUNCTION     0.98     2.05    11.24     0  00:45        2.01
  YSB1174              JUNCTION     1.03     1.95    11.06     0  00:45        1.95
  YSB1171              JUNCTION     1.19     1.95    10.85     0  00:44        1.95
  YS02006553           JUNCTION     1.18     1.99     8.28     0  00:51        1.99
  YS02006561           JUNCTION     0.43     1.10     7.76     0  00:45        0.93
  YS02006562           JUNCTION     0.96     1.81     8.32     0  00:51        1.81
  YS02006556           JUNCTION     1.15     2.00     8.31     0  00:51        2.00
  YS02006558           JUNCTION     1.19     2.06     8.33     0  00:51        2.06
  YS6132               JUNCTION     0.61     3.27    10.60     0  00:57        2.36
  YS6137               JUNCTION     0.34     2.90    10.69     0  00:57        1.53
  YS6189               JUNCTION     0.45     2.80    10.59     0  00:57        1.84
  YS6184               JUNCTION     0.46     2.65    10.54     0  00:51        2.09
  YS6179               JUNCTION     0.40     2.60    10.58     0  00:51        2.06
  YS6176               JUNCTION     0.30     2.40    10.60     0  00:51        1.89
  YS6171               JUNCTION     0.32     2.10    10.51     0  00:50        1.91
  YS6168               JUNCTION     0.34     2.00    10.51     0  00:50        2.00
  YS6164               JUNCTION     0.16     1.90    10.63     0  00:51        1.85
  YS6162               JUNCTION     0.21     2.10    10.75     0  00:50        2.01
  YS6187               JUNCTION     0.49     2.75    10.53     0  00:51        1.94
  YS6363               JUNCTION     0.37     3.05    10.84     0  00:57        1.34
  YS6360               JUNCTION     0.49     3.00    10.80     0  00:57        1.55
  YS6354               JUNCTION     0.49     2.60    10.75     0  00:51        1.96
  YS6351               JUNCTION     0.58     2.50    10.71     0  00:51        2.24
  YS6350               JUNCTION     0.64     2.50    10.72     0  00:49        2.42
  YS6348               JUNCTION     0.60     2.45    10.85     0  00:48        2.45
  YS6344               JUNCTION     0.41     2.27    10.86     0  00:48        2.26
  YS6375               JUNCTION     0.08     0.31     8.73     0  00:51        0.31
  YS6377               JUNCTION     0.14     0.37     8.73     0  00:52        0.37
  YS6381               JUNCTION     0.16     0.42     8.55     0  00:52        0.42
  YS6386               JUNCTION     0.18     0.50     8.48     0  00:52        0.50
  YS6390               JUNCTION     0.40     0.63     8.32     0  00:52        0.63
  YS6394               JUNCTION     0.10     0.25     8.17     0  00:52        0.25
  YS6404               JUNCTION     0.56     3.00    10.23     0  00:49        2.78
  YS6401               JUNCTION     0.18     0.43     7.64     0  00:51        0.42
  YS02004319           JUNCTION     0.31     1.18    20.80     0  00:45        1.18
  YS02004320           JUNCTION     0.00     0.00    22.64     0  01:00        0.00
  YS02004321           JUNCTION     0.00     0.00    26.80     0  00:57        0.00
  YS02004307           JUNCTION     0.18     0.52    11.06     0  00:50        0.52
  YS02004309           JUNCTION     0.79     1.55    13.07     0  00:35        1.55
  YS02004312           JUNCTION     0.49     1.48    14.91     0  00:43        1.48
  YS02004314           JUNCTION     0.36     1.28    16.99     0  00:43        1.28
  YS02004316           JUNCTION     0.36     1.36    19.13     0  00:45        1.36
  YS02001783           JUNCTION     0.66     1.38     7.52     0  00:45        1.25
  YS02001784           JUNCTION     0.63     1.19     7.26     0  00:45        1.13
  YS02001786           JUNCTION     0.51     0.96     6.99     0  00:45        0.88
  YS02001788           JUNCTION     0.38     0.62     6.60     0  00:49        0.62
  YS02001790           JUNCTION     0.43     0.72     6.36     0  00:49        0.72
  YS02001791           JUNCTION     0.26     0.44     5.91     0  00:49        0.43
  YS02001793           JUNCTION     0.14     0.29     5.12     0  01:10        0.27
  YS02003309           JUNCTION     0.71     1.21     9.77     0  00:27        1.04
  YS02003306           JUNCTION     0.82     1.16     9.60     0  00:27        1.16
  YS02003269           JUNCTION     0.14     0.17     7.76     0  00:44        0.17
  YS02003272           JUNCTION     0.41     1.35     9.08     0  00:28        0.58
  YS02003278           JUNCTION     0.82     1.21     9.13     0  00:47        1.21
  YS02003281           JUNCTION     0.93     1.39     9.47     0  00:44        1.39
  YS02003284           JUNCTION     1.01     1.40     9.41     0  00:28        1.40
  YS02003287           JUNCTION     0.95     1.27     9.34     0  00:28        1.27
  YS02003290           JUNCTION     0.81     1.12     9.40     0  00:28        1.10
  YS02003294           JUNCTION     0.97     1.24     9.42     0  00:28        1.24
  YS02003275           JUNCTION     0.62     1.17     9.07     0  00:28        0.91
  YS02003297           JUNCTION     0.95     1.22     9.43     0  00:28        1.22
  YS02003300           JUNCTION     0.89     1.15     9.42     0  00:27        1.15
  YS02003303           JUNCTION     0.87     1.14     9.46     0  00:27        1.14
  YSB1227              JUNCTION     0.01     0.10    11.00     0  00:51        0.10
  CaochengRainPumpOutfall1 OUTFALL      0.00     0.00     6.00     0  00:00        0.00
  JiankangRainPumpOutfall2 OUTFALL      0.00     0.00     6.00     0  00:00        0.00
  JiankangRainPumpOutfall1 OUTFALL      0.00     0.00     6.00     0  00:00        0.00
  CaochengRainPumpOutfall2 OUTFALL      0.00     0.00     6.00     0  00:00        0.00
  YS02005684           OUTFALL      0.03     0.08     8.49     0  00:51        0.08
  YS02005681           OUTFALL      0.05     0.13     9.35     0  00:51        0.13
  YS02005678           OUTFALL      0.05     0.14     8.68     0  00:51        0.14
  YS02005675           OUTFALL      0.05     0.14     8.68     0  00:51        0.14
  YS02005672           OUTFALL      0.04     0.10     8.44     0  00:51        0.10
  YS02005669           OUTFALL      0.06     0.15     8.86     0  00:52        0.15
  YS02005666           OUTFALL      0.05     0.12     8.80     0  00:52        0.12
  YS02005663           OUTFALL      0.05     0.13     8.86     0  00:52        0.13
  YS02005660           OUTFALL      0.05     0.14     8.95     0  00:52        0.14
  YS02005657           OUTFALL      0.00     0.00     8.74     0  00:00        0.00
  YS02005652           OUTFALL      0.06     0.17     8.79     0  00:51        0.17
  YS02005649           OUTFALL      0.08     0.23     8.93     0  00:51        0.23
  YS02005646           OUTFALL      0.08     0.22     8.22     0  00:50        0.22
  YS02005643           OUTFALL      0.08     0.22     8.78     0  00:52        0.22
  YS02005641           OUTFALL      0.06     0.16     8.86     0  00:52        0.16
  YS02005638           OUTFALL      0.06     0.16     8.82     0  00:52        0.16
  YS02005635           OUTFALL      0.05     0.14     8.80     0  00:51        0.14
  YS02005632           OUTFALL      0.05     0.13     8.69     0  00:52        0.13
  YS02005629           OUTFALL      0.04     0.11     8.59     0  00:51        0.11
  YS02005626           OUTFALL      0.04     0.10     8.62     0  00:51        0.10
  YS02005623           OUTFALL      0.04     0.11     8.59     0  00:51        0.11
  YS02005620           OUTFALL      0.05     0.14     8.93     0  00:51        0.14
  YS02005617           OUTFALL      0.04     0.11     8.95     0  00:51        0.11
  YSB1103              OUTFALL      0.24     0.60     8.60     0  00:50        0.60
  YSB1229              OUTFALL      0.05     0.16     8.96     0  00:51        0.16
  YS02005548           OUTFALL      0.04     0.10     9.10     0  00:51        0.10
  YS02005552           OUTFALL      0.04     0.10     8.72     0  00:51        0.09
  YS02005555           OUTFALL      0.03     0.09     8.82     0  00:52        0.09
  YS02005558           OUTFALL      0.04     0.09     8.79     0  00:52        0.09
  YS02005561           OUTFALL      0.04     0.10     8.78     0  00:52        0.10
  YS02005564           OUTFALL      0.04     0.09     8.57     0  00:52        0.09
  YS02005567           OUTFALL      0.05     0.12     8.65     0  00:52        0.12
  YS02005570           OUTFALL      0.05     0.12     8.84     0  00:52        0.12
  YS02005574           OUTFALL      0.12     0.28     9.12     0  00:53        0.28
  YS02005578           OUTFALL      0.08     0.19     8.97     0  00:53        0.19
  WS02005134           OUTFALL      0.00     0.00     8.74     0  00:00        0.00
  YS02005581           OUTFALL      0.06     0.17     8.96     0  00:52        0.17
  YS02005584           OUTFALL      0.06     0.17     9.13     0  00:52        0.17
  YS02005593           OUTFALL      0.22     0.28     9.00     0  01:02        0.28
  YS02005596           OUTFALL      0.14     0.30     8.84     0  00:46        0.30
  YS02005374           OUTFALL      0.13     0.30     8.54     0  00:47        0.30
  YS02005375           OUTFALL      0.13     0.30     8.69     0  00:46        0.30
  YS02005607           OUTFALL      0.13     0.30     7.53     0  00:47        0.30
  YS02005610           OUTFALL      0.07     0.18     8.80     0  00:52        0.18
  YS02005613           OUTFALL      0.12     0.30     8.58     0  00:50        0.30
  HS02003172           OUTFALL      0.20     0.51     5.96     0  00:53        0.51
  YS6395               OUTFALL      0.10     0.25     6.68     0  00:52        0.25
  YS6405               OUTFALL      0.18     0.41     3.86     0  00:52        0.41
  WSC                  OUTFALL      0.61     0.80     5.00     0  00:37        0.80
  JiankangQianchi      STORAGE      2.80     4.21     5.01     0  01:10        4.19
  CaochengTiaoxuchi    STORAGE      0.92     1.41     6.91     0  01:02        1.41
  XierchiQianchi       STORAGE      7.02     7.47     5.47     0  02:02        7.47
  
  
  *******************
  Node Inflow Summary
  *******************
  
  -------------------------------------------------------------------------------------------------
                                  Maximum  Maximum                  Lateral       Total        Flow
                                  Lateral    Total  Time of Max      Inflow      Inflow     Balance
                                   Inflow   Inflow   Occurrence      Volume      Volume       Error
  Node                 Type           LPS      LPS  days hr:min    10^6 ltr    10^6 ltr     Percent
  -------------------------------------------------------------------------------------------------
  WS02001211           JUNCTION      7.35   218.57     0  01:25      0.0541        1.19       4.210
  WS02001212           JUNCTION      0.00   233.15     0  01:27           0        1.14       2.348
  WS02001213           JUNCTION      0.00   244.41     0  01:27           0        1.12       3.269
  WS02003069           JUNCTION      0.32  2521.24     0  00:50     0.00236        10.9       0.646
  WS02003072           JUNCTION      0.00  2521.17     0  00:50           0        10.8       0.555
  WS02003073           JUNCTION      1.82  3089.71     0  00:50      0.0134        14.2       0.271
  WS02003076           JUNCTION      0.00  3089.72     0  00:50           0        14.1       0.295
  WS02003060           JUNCTION     16.53  2521.09     0  00:50       0.122          11       0.524
  WS02003066           JUNCTION      0.00  2311.32     0  00:50           0        9.79       0.103
  WS02003059           JUNCTION      0.00   249.23     0  01:27           0        1.12       5.161
  WS02003115           JUNCTION      0.00   477.12     0  01:05           0        1.21       0.440
  WS02003116           JUNCTION      0.00   263.17     0  00:24           0        1.11       0.744
  WS02003118           JUNCTION      0.12   220.94     0  00:24    3.55e-06        1.11       1.342
  WS02003215           JUNCTION      0.18  2574.10     0  00:52    2.05e-05        3.19       0.834
  WS02003110           JUNCTION      0.18   505.33     0  00:52     0.00133       0.665       1.121
  WS02003111           JUNCTION      1.52   983.73     0  00:52      0.0108         1.8       0.395
  WS02005155           JUNCTION      0.38   505.23     0  00:52     0.00281       0.664       1.478
  WS02005154           JUNCTION    504.83   504.83     0  00:52        0.66       0.662       0.894
  WS02005193           JUNCTION      0.00   171.37     0  00:28           0      0.0154     137.496
  WS02005196           JUNCTION      0.00   125.77     0  00:28           0     0.00571     580.426
  WS02003067           JUNCTION      0.00  1874.85     0  00:49           0        7.73       0.190
  WS02004401           JUNCTION      0.00  1093.83     0  01:34           0        5.68       0.555
  WS02004402           JUNCTION      0.00  1093.90     0  01:34           0        5.66       0.493
  WS02004403           JUNCTION      0.00  1094.30     0  01:34           0        5.64       0.428
  WS02004404           JUNCTION      0.16  1094.83     0  01:34     0.00119        5.63       0.294
  WS02004406           JUNCTION      0.00  1094.63     0  01:34           0         5.6       0.732
  WS02004409           JUNCTION      0.08  1821.18     0  00:48    6.87e-05        8.35       0.420
  WS02004410           JUNCTION      0.00  1874.97     0  00:49           0        8.44       0.422
  WS02004411           JUNCTION      0.00  1874.69     0  00:49           0        7.84       0.437
  WS02004412           JUNCTION      0.00  1874.58     0  00:49           0        7.81       0.437
  WS02004413           JUNCTION      0.00  1874.74     0  00:49           0        7.77       0.562
  WS02004405           JUNCTION      0.18  1094.50     0  01:35    0.000436        5.62       0.433
  WS02006109           JUNCTION      1.95  1308.01     0  00:00     0.00972         6.6       0.342
  WS02006110           JUNCTION      0.37  1093.52     0  01:34    0.000278        5.85      -0.333
  WS02006111           JUNCTION      0.04  1176.04     0  00:00    1.33e-05        5.84      -0.303
  WS02006112           JUNCTION      0.48  2307.30     0  00:00     2.5e-05        5.86       0.281
  WS02006113           JUNCTION      0.10  1093.42     0  01:35    5.49e-05        5.83      -0.365
  WS02006115           JUNCTION      0.00  1366.62     0  00:00           0        5.73       0.574
  WS02006116           JUNCTION      0.30  1094.01     0  01:34    0.000363         5.7       0.476
  WS02006230           JUNCTION     10.44  1027.20     0  00:49      0.0757         3.4       0.482
  WS02006231           JUNCTION      0.56   453.34     0  01:15     0.00144           2       0.818
  WS02006232           JUNCTION      0.27   453.59     0  01:19     0.00015        2.01       0.898
  WS02006234           JUNCTION      0.13   453.38     0  01:19    4.06e-06        2.02       0.607
  WS02006235           JUNCTION      0.27   415.23     0  01:05    0.000499        2.11       0.520
  WS02006238           JUNCTION      0.00   415.41     0  01:05           0        2.09       0.350
  WS02006240           JUNCTION      0.00   414.94     0  01:05           0        2.12       0.778
  WS02006242           JUNCTION      0.33   415.02     0  01:05    0.000131        2.14       0.921
  WS02006243           JUNCTION      0.66   285.38     0  00:25     0.00139        1.61       1.005
  WS02006245           JUNCTION      0.00   293.97     0  00:26           0        1.62       0.823
  WS02006247           JUNCTION      0.00   304.88     0  00:26           0        1.64       0.733
  WS02006248           JUNCTION      0.00   344.99     0  00:37           0        1.98       0.557
  WS02006249           JUNCTION      0.00  1391.35     0  00:52           0        5.33       0.316
  WS02006239           JUNCTION      0.00   415.11     0  01:05           0         2.1       0.603
  WS02006251           JUNCTION      0.08  1758.11     0  00:52    0.000567        5.64       0.321
  WS02006252           JUNCTION      0.00   766.82     0  00:52           0        2.08       0.001
  WS02006253           JUNCTION     59.55  1758.16     0  00:52      0.0759        4.47       0.457
  WS02006256           JUNCTION      0.00   300.00     0  00:31           0        1.63       0.062
  WS02004138           JUNCTION      0.00   190.00     0  00:29           0        1.18       0.247
  WS02004139           JUNCTION      0.32   190.32     0  00:33     0.00236        1.18       3.490
  WS02004407           JUNCTION      0.09  1820.98     0  00:48    0.000103        8.41       0.320
  WS02006228           JUNCTION      1.26  1289.26     0  00:49     0.00107        6.58       0.233
  WS02006229           JUNCTION      1.01  2306.42     0  00:49    0.000879        9.77       0.265
  WS02006280           JUNCTION      0.26  2306.00     0  00:49    0.000411        9.61       0.023
  WS02006284           JUNCTION      0.19  2305.84     0  00:49    0.000753        9.63       0.147
  WS02006287           JUNCTION      0.21  2306.20     0  00:49    0.000107        9.64       0.101
  WS02003091           JUNCTION      0.51  1200.35     0  00:00     0.00107        3.52      -1.117
  WS02003203           JUNCTION      0.34  2264.56     0  00:00    0.000132        5.49       0.184
  WS6145               JUNCTION      0.32   230.64     0  00:48    0.000436      0.0901       0.364
  WS6147               JUNCTION      0.00   229.12     0  00:48           0      0.0791       0.236
  WS6150               JUNCTION      0.19   228.80     0  00:48    0.000529      0.0682       0.483
  WS6152               JUNCTION      0.58   236.35     0  00:48     0.00425      0.0573       0.644
  WS6155               JUNCTION      0.01   228.11     0  00:48    4.03e-05      0.0424       0.576
  WS6156               JUNCTION      0.72   233.51     0  00:48     0.00384      0.0312       0.307
  WS6136               JUNCTION      0.20   705.44     0  00:48    4.82e-05        1.71       0.050
  WS6140               JUNCTION      0.23   230.16     0  00:48    0.000145        0.11       0.117
  WS6142               JUNCTION      0.24   230.68     0  00:48    0.000179       0.101       0.208
  WS6325               JUNCTION      0.23   114.40     0  00:47    0.000201      0.0883       2.258
  WS6327               JUNCTION      0.19   113.63     0  00:47    0.000495      0.0784       0.315
  WS6329               JUNCTION      0.51   113.78     0  00:47      0.0019      0.0677       0.187
  WS6332               JUNCTION      0.35   114.54     0  00:47    0.000758      0.0551       0.176
  WS6158               JUNCTION      1.82   247.98     0  00:49      0.0121      0.0169      -0.373
  WS6335               JUNCTION      0.68   115.42     0  00:47     0.00366      0.0431       0.403
  WS6338               JUNCTION      0.44   115.24     0  00:47     0.00112      0.0282       0.214
  WS6340               JUNCTION      0.30   115.79     0  00:47     0.00021      0.0154       0.209
  WS6342               JUNCTION      0.65   119.25     0  00:47     0.00315     0.00618      -1.249
  WS6135               JUNCTION      0.13   705.21     0  00:48    3.75e-05        1.79       0.426
  WS6396               JUNCTION      0.00   547.54     0  01:01           0        1.69       0.178
  WS6399               JUNCTION      0.06   547.57     0  01:01    6.81e-05        1.69       0.067
  WS02003082           JUNCTION      0.52   590.06     0  00:40     0.00151        3.48       0.523
  WS02003077           JUNCTION      0.60   590.73     0  00:40     0.00442        3.44       0.211
  WS02003080           JUNCTION      0.00   590.11     0  00:40           0        3.45       0.436
  WS02003083           JUNCTION      0.00   589.97     0  00:40           0        3.49       0.255
  WS02003084           JUNCTION      0.04   589.95     0  00:40    0.000324         3.5       0.269
  WS02003085           JUNCTION      0.00   589.98     0  00:40           0         3.5       0.178
  WS02003086           JUNCTION      0.49   655.05     0  00:01     0.00362        3.52       0.422
  WS02003087           JUNCTION      0.00  1086.59     0  00:00           0        3.52       0.300
  WS02003088           JUNCTION      0.55  2146.84     0  00:00     0.00167        3.56       0.394
  WS02003089           JUNCTION      0.27  1590.77     0  00:00    0.000414        3.55      -0.263
  WS02003090           JUNCTION      0.43  1113.92     0  00:00     0.00064        3.52      -0.677
  WS02003081           JUNCTION      0.19   590.11     0  00:40       9e-05        3.46       0.410
  WS02003122           JUNCTION      0.00   210.44     0  00:32           0        1.08       1.397
  WS02003187           JUNCTION    718.80   895.74     0  00:52        1.04        2.08       0.626
  WS02003188           JUNCTION      0.48   403.49     0  00:57     0.00122        1.75       0.708
  WS02003190           JUNCTION      0.12   608.63     0  00:57    3.52e-06        2.62       0.515
  WS02003193           JUNCTION   1067.69  1322.15     0  00:52        1.49        2.47       0.709
  WS02003195           JUNCTION      0.31   306.12     0  00:01    0.000766        1.07       1.420
  WS02003196           JUNCTION      0.00   382.46     0  00:01           0        1.07       1.315
  WS02003198           JUNCTION    161.29   455.45     0  00:01       0.223        1.09       1.587
  WS02003200           JUNCTION      4.23   651.61     0  00:01      0.0289       0.874      -0.917
[...]
  WS02003089WS02003088        1.75      1.76      1.77      1.69         1.69
  WS02003088WS02003087        1.77      1.79      1.77      1.83         1.77
  WS02003087WS02003086        1.71      1.71      1.79      1.77         0.01
  WS02003086WS02003085        1.71      1.71      1.76      1.81         0.01
  WS02003085WS02003084        1.71      1.72      1.72      1.73         1.71
  WS02003084WS02003083        1.71      1.72      1.71      1.90         1.71
  WS02003083WS02003082        1.70      1.70      1.73      1.80         0.01
  WS02003082WS02003081        1.69      1.70      1.69      1.79         1.69
  WS02003081WS02003080        1.69      1.69      1.69      1.70         1.69
  WS02003080WS02003077        0.70      0.70      1.69      1.69         0.01
  WS02003073WS02003076        0.80      0.80      1.46      0.32         0.01
  HS02004901HS02004770        0.69      0.69      0.69      0.01         0.01
  HS02004876HS02004881        0.74      0.76      0.74      1.63         0.74
  HS02004870HS02004876        0.67      0.67      0.76      0.01         0.01
  HS02004049HS02004052        0.22      0.22      0.25      0.01         0.01
  HS02004048HS02004049        0.34      0.46      0.34      0.54         0.34
  HS02004046HS02004048        0.23      0.23      0.46      0.01         0.01
  HS02004043HS02004046        0.19      0.19      0.26      0.08         0.08
  HS02004041HS02004043        0.06      0.06      0.18      0.01         0.01
  HS02004038HS02004041        0.01      0.01      0.06      0.01         0.01
  HS02004028HS02004027        0.01      0.12      0.01      0.14         0.01
  HS02003143HS02003065        0.55      0.55      0.80      0.01         0.01
  HS02004842HS02004848        0.58      0.58      0.81      0.01         0.01
  HS02004837HS02004842        0.62      0.62      0.81      0.01         0.01
  HS02004830HS02004837        0.62      0.62      0.68      0.01         0.01
  HS02004824HS02004830        0.68      0.68      0.73      0.01         0.01
  HS02004817HS02004824        0.73      0.73      1.56      0.01         0.01
  HS02004770HS02004777        0.69      0.69      0.70      0.01         0.01
  HS02004799HS02004480        0.89      0.89      0.95      0.91         0.01
  HS02004792HS02004799        0.81      0.81      0.95      0.01         0.01
  HS02004788HS02004792        0.64      0.64      0.81      0.01         0.01
  HS02004785HS02004788        0.64      0.65      0.64      1.43         0.52
  HS02004777HS02004785        0.65      0.65      0.70      0.01         0.01
  HS02004480HS02004478        0.84      0.89      0.84      1.70         0.84
  HS02004479HS02004480        0.89      0.89      0.93      0.01         0.01
  HS02003013HS02003010        0.45      0.45      0.51      0.30         0.30
  HS02003010HS02003007        0.43      0.43      0.45      0.48         0.43
  HS02003007HS02003004        0.45      0.45      0.54      0.26         0.26
  HS02003004HS02003001        0.01      0.54      0.01      1.25         0.01
  HS02003065HS02003056        0.78      0.78      0.94      0.01         0.01
  HS02003042HS02003053        0.39      0.39      0.74      0.01         0.01
  HS02003028HS02003021        0.31      0.31      0.38      0.01         0.01
  HS02003021HS02003018        0.41      0.41      0.43      0.16         0.17
  HS02003018HS02003017        0.43      0.43      0.44      0.09         0.08
  HS02003017HS02003013        0.44      0.44      0.45      0.36         0.35
  HS02004862HS02004870        0.64      0.64      0.67      0.18         0.17
  HS02004848HS02004852        0.58      0.58      0.61      0.02         0.01
  HS02004856HS02004862        0.59      0.59      0.64      0.01         0.01
  HS02004852HS02004856        0.61      0.61      0.64      0.02         0.01
  HS02004024HS02004022        0.01      0.01      0.15      0.01         0.01
  HS02004022HS02004021        0.15      0.15      0.24      0.01         0.01
  HS02004021HS02004019        0.24      0.24      0.31      0.18         0.18
  HS02004019HS02003162        0.01      0.31      0.01      0.34         0.01
  HS02004052HS02004053        0.24      0.25      0.24      0.26         0.24
  HS02003122HS02003125        1.51      1.51      1.52      0.20         0.23
  HS02003119HS02003122        1.50      1.50      1.52      0.01         0.01
  HS02003116HS02003119        1.29      1.29      1.50      0.01         0.01
  HS02003111HS02003116        0.01      0.01      1.37      0.01         0.01
  HS02004018HS02004019        0.17      0.17      0.31      0.01         0.01
  HS02003056HS02003136        0.81      0.81      1.53      0.01         0.01
  HS02004017HS02004018        0.14      0.14      0.17      0.01         0.01
  HS02004013HS02004017        0.01      0.01      0.14      0.01         0.01
  HS02004802HS02004478        0.84      0.84      0.91      0.23         0.01
  HS02004478WS02006287        0.70      0.70      0.89      0.01         0.01
  HS02003079HS02003084        0.03      0.03      0.05      0.01         0.01
  HS02003148HS02003145        0.01      0.01      0.19      0.06         0.01
  HS02003145HS02003143        0.19      0.19      0.53      0.18         0.17
  HS02003136WS02003203        1.54      1.54      1.66      0.01         0.01
  HS02003084HS02003088        0.05      0.05      0.08      0.01         0.01
  HS02003077HS02003079        0.01      0.01      0.03      0.01         0.01
  HS02003108HS02003111        0.21      0.21      0.43      0.03         0.02
  HS02003100HS02003108        0.11      0.11      0.21      0.01         0.01
  HS02003088HS02003100        0.09      0.09      0.11      0.05         0.04
  HS02004817HS02004807        0.88      0.88      1.56      0.01         0.01
  HS02004807HS02004802        0.88      0.88      0.90      0.39         0.39
  HS02003053HS02003056        0.74      0.74      0.94      0.01         0.01
  HS02003039HS02003042        0.47      0.47      0.50      0.30         0.03
  HS02003036HS02003039        0.25      0.25      0.30      0.01         0.01
  YS02001759YS02001757        0.22      0.22      0.23      0.22         0.18
  YS02001762YS02001759        0.22      0.22      0.22      0.20         0.17
  YS02001765YS02001762        0.21      0.21      0.22      0.10         0.08
  YS02001770YS02001767        0.21      0.23      0.21      0.80         0.21
  YS02001774YS02001770        0.22      0.22      0.25      0.01         0.01
  YS02001779YS02001774        0.19      0.19      0.25      0.01         0.01
  YS02001767YS02001765        0.21      0.21      0.21      0.24         0.20
  YS02006561YS02001783        0.55      0.55      0.76      0.01         0.01
  YS02001783YS02001784        0.73      0.76      0.73      0.94         0.73
  YS02001784YS02001785        0.61      0.73      0.61      1.30         0.61
  YS02001790YS02001791        0.01      0.01      0.01      0.72         0.01
  YS02001910YS02001907        0.80      0.80      1.03      0.12         0.11
  YS02001786YS02001788        0.01      0.61      0.01      1.10         0.01
  YS02001915YS02001910        0.70      0.70      0.80      0.01         0.02
  YS02001918YS02001915        0.60      0.60      0.70      0.01         0.01
  YS02001923YS02001920        0.53      0.53      0.62      0.01         0.01
  YS02001926YS02001923        0.26      0.26      0.28      0.04         0.01
  YS02001929YS02001926        0.13      0.13      0.28      0.01         0.01
  YS02001932YS02001929        0.10      0.10      0.13      0.01         0.01
  YS02001935YS02001932        0.01      0.01      0.07      0.01         0.01
  YS02001920YS02001918        0.60      0.60      0.62      0.01         0.01
  YS02003290YS02003287        1.62      1.62      1.66      0.01         0.01
  YS02003294YS02003290        1.62      1.62      1.71      0.03         0.01
  YS02003297YS02003294        1.69      1.69      1.70      0.28         0.25
  YS02003275YS02003272        1.46      1.58      1.46      1.64         1.46
  YS02003300YS02003297        1.62      1.62      1.67      0.01         0.01
  YS02003303YS02003300        1.60      1.60      1.64      0.01         0.01
  YS02005582YS02005583        0.01      0.01      0.01      0.12         0.01
  YS02003272YS02003269        0.01      1.55      0.01      1.64         0.01
  YS02003278YS02003275        1.61      1.67      1.61      1.75         1.61
  YS02003281YS02003278        1.64      1.64      1.66      1.61         1.60
  YS02003284YS02003281        1.64      1.64      1.67      1.04         0.42
  YS02003287YS02003284        1.66      1.66      1.68      0.01         0.05
  YS02003306YS02003303        1.59      1.59      1.62      0.58         0.58
  YS02003309YS02003306        1.52      1.52      1.59      0.01         0.01
  YS02005600YS02005375        0.23      0.23      0.24      0.24         0.23
  YS02005384YS02005593        0.01      1.06      0.01      1.12         0.01
  YS02005595YS02005596        0.28      0.29      0.28      0.31         0.28
  YS02005612YS02005613        0.04      0.04      0.77      0.21         0.01
  YS02005571YS02005572        0.01      0.29      0.01      0.45         0.01
  YS02005572YS02005574        0.01      0.01      0.01      0.09         0.01
  YS02005579YS02005580        0.01      0.01      0.01      0.09         0.01
  YS02006553YS02006556        0.91      0.91      1.06      0.01         0.01
  YS02006556YS02006558        0.98      0.98      1.09      0.01         0.01
  YSB6556YSB1171              1.03      1.03      1.63      0.01         0.01
  YSB1202YSB1205              0.57      0.57      0.64      0.01         0.01
  YSB1205YSB1209              0.64      0.64      0.64      0.66         0.63
  YSB1209YSB1212              0.58      0.64      0.58      0.96         0.58
  YSB1212YSB1215              0.58      0.58      0.60      0.45         0.44
  YSB1215YSB1218              0.60      0.60      0.60      0.54         0.52
  YSB1218YSB1221              0.54      0.54      0.63      0.43         0.43
  YSB1221YSB1224              0.63      0.63      0.66      0.54         0.53
  YSB1224YSB1105              0.26      0.78      0.26      1.05         0.26
  YSB1189YSB1186              0.61      0.61      0.73      0.20         0.20
  YS02001907YS02006553        1.31      1.31      1.42      0.01         0.01
  YS02006562YS02006558        0.76      0.76      1.09      0.01         0.01
  YS02006558YS02006561        0.64      0.90      0.64      1.23         0.64
  YS6184YS6187                0.19      0.19      0.20      0.13         0.14
  YS6360YS6363                0.17      0.20      0.17      0.82         0.16
  YS6354YS6360                0.26      0.27      0.27      0.26         0.24
  YS6351YS6354                0.27      0.29      0.27      0.49         0.27
  YS6350YS6351                0.29      0.31      0.29      0.84         0.29
  YS6348YS6350                0.30      0.30      0.31      0.27         0.25
  YS6344YS6348                0.30      0.30      0.36      0.01         0.01
  YS6363YS6132                0.16      0.16      0.32      0.01         0.01
  YS6137YS6132                0.24      0.24      0.43      0.01         0.01
  YS6189YS6137                0.24      0.24      0.26      1.63         0.01
  YS6187YS6189                0.19      0.19      0.20      0.37         0.01
  YS6179YS6184                0.18      0.18      0.19      0.01         0.01
  YS6176YS6179                0.13      0.13      0.18      0.01         0.01
  YS6171YS6176                0.15      0.15      0.18      0.03         0.04
  YS6168YS6171                0.14      0.14      0.15      0.11         0.11
  YS6164YS6168                0.10      0.10      0.14      0.01         0.01
  YS6162YS6164                0.13      0.13      0.15      0.01         0.01
  YS6132YS6404                0.02      0.20      0.02      0.36         0.02
  YSB1106YSB1105              0.01      0.23      0.01      0.27         0.01
  YSB1109YSB1106              0.23      0.29      0.23      0.44         0.23
  YSB1112YSB1109              0.29      0.29      0.29      0.32         0.29
  YSB1115YSB1112              0.27      0.27      0.29      0.12         0.12
  YSB1118YSB1115              0.30      0.30      0.30      0.33         0.30
  YSB1121YSB1118              0.30      0.33      0.30      0.44         0.30
  YSB1124YSB1121              0.30      0.30      0.33      0.01         0.01
  YSB1105YSB1103              0.01      0.01      0.12      0.12         0.01
  YS02001745YS02001748        0.01      0.01      0.01      0.01         0.01
  YS02001748YS02001751        0.02      0.02      0.06      0.01         0.01
  YS02001751YS02001754        0.06      0.06      0.13      0.01         0.01
  YS02001754YS02001757        0.14      0.14      0.23      0.01         0.01
  YS02001882YS02001884        0.70      0.70      0.71      0.01         0.01
  YS02001884YS02001887        0.73      0.73      0.75      0.01         0.01
  YS02001890YS02001895        0.69      0.69      0.80      0.01         0.01
  YS02001895YS02001898        0.68      0.68      0.69      0.01         0.01
  YS02001898YS02001901        0.69      0.69      0.73      0.01         0.01
  YS02001901YS02001904        0.72      0.72      0.73      0.01         0.01
  YS02001904YS02001907        0.72      0.72      1.06      0.01         0.01
  YS02001887YS02001890        0.77      0.77      0.78      0.23         0.01
  YS02004309YS02004307        0.21      1.01      0.21      0.99         0.21
  YS02004319YS02004316        0.35      0.35      0.37      0.01         0.01
  YS02005376YS02005378        1.28      1.28      1.83      0.01         0.01
  YS02005378YS02005381        1.80      1.80      1.83      0.01         0.01
  YS02005381YS02005384        1.06      1.06      1.80      1.82         0.01
  YS02005598YS02005374        0.22      0.22      0.24      0.24         0.22
  YS02005602YS02005603        0.21      0.53      0.21      0.67         0.21
  YS02005603YS02005607        0.21      0.21      0.23      0.23         0.21
  YS02005621YS02005622        0.01      0.01      0.01      0.05         0.01
  YS02005624YS02005625        0.01      0.01      0.23      0.02         0.01
  YS02005630YS02005631        0.01      0.05      0.01      0.09         0.01
  YS02005633YS02005634        0.01      0.03      0.01      0.05         0.01
  YS02005636YS02005637        0.01      0.08      0.01      0.11         0.01
  YS02005639YS02005640        0.01      0.05      0.01      0.08         0.01
  YS02005627YS02005628        0.01      0.04      0.01      0.25         0.01
  YS02005644YS02005645        0.01      0.18      0.01      0.21         0.01
  YS02005650YS02005651        0.01      0.08      0.01      0.16         0.01
  YS02005653YS02005654        0.07      0.07      0.08      0.07         0.06
  YS02005654YS02005655        0.01      0.08      0.01      0.15         0.01
  YS02005658YS02005659        0.01      0.01      0.01      0.06         0.01
  YS02005661YS02005662        0.01      0.09      0.01      0.19         0.01
  YS02005664YS02005665        0.01      0.12      0.01      0.48         0.01
  YS02005667YS02005668        0.01      0.01      0.62      0.18         0.01
  YS02005647YS02005648        0.01      0.22      0.01      0.35         0.01
  YS02004312YS02004309        0.60      0.60      1.01      0.01         0.01
  YS02004314YS02004312        0.39      0.39      0.60      0.01         0.01
  YS02004316YS02004314        0.37      0.37      0.39      0.31         0.31
  YS02004320YS02004319        0.01      0.01      0.25      0.01         0.01
  YS6404YS6401                0.01      0.02      0.01      0.81         0.01
  YSB1132YSB1135              0.64      0.64      0.71      0.01         0.01
  YSB1135YSB1138              0.71      0.71      0.75      0.01         0.01
  YSB1138YSB1141              0.75      0.75      0.83      0.50         0.50
  YSB1141YSB1145              0.80      0.80      0.83      0.49         0.45
  YSB1148YSB1151              0.90      0.90      1.15      0.01         0.01
  YSB1151YSB1154              1.00      1.00      1.33      0.01         0.01
  YSB1154YSB6556              1.03      1.03      1.33      0.51         0.01
  YSB1128YSB1132              0.61      0.61      0.64      0.01         0.01
  YSB1145YSB1148              0.83      0.83      0.90      0.01         0.01
  YSB1198YSB1195              0.32      0.32      0.56      0.01         0.01
  YSB1195YSB1192              0.56      0.56      0.58      0.01         0.01
  YSB1192YSB1189              0.58      0.58      0.61      0.01         0.01
  YSB1186YSB1183              0.67      0.67      0.80      0.01         0.01
  YSB1183YSB1180              0.80      0.80      0.84      0.24         0.25
  YSB1180YSB1177              0.84      0.84      1.18      0.01         0.01
  YSB1177YSB1174              1.18      1.18      1.45      0.25         0.26
  YSB1174YSB1171              1.13      1.13      1.59      0.20         0.20
  YSB1171HS02004479           0.86      0.86      1.28      0.01         0.01
  HS02003001HS02003166        0.01      0.01      0.08      0.01         0.01
  YS02004307HS02004052        0.01      0.01      0.25      0.01         0.01
  HS02004881HS02006253        0.74      0.74      1.54      0.01         0.01
  WS0200404049WS6136          0.23      0.23      0.33      0.01         0.01
  HS02003125WS02003215        1.52      1.52      1.54      0.01         0.01
  YS02001793JiankangQianchi        0.01      0.01      2.04      0.01         0.01
  YS02001757CaochengTiaoxuchi        0.23      0.23      0.63      0.15         0.14
  WS02004041WS6409            1.17      1.17      1.26      1.26         1.17
  WSF200WS02003060            0.33      0.33      0.62      0.01         0.01
  HS02004053WS02004407        0.24      0.24      1.20      0.01         0.01
  HS02003036HS02003028        0.25      0.25      0.37      0.01         0.01
  
  
  ***************
  Pumping Summary
  ***************
  
  ---------------------------------------------------------------------------------------------------------
                                                  Min       Avg       Max     Total     Power    % Time Off
                        Percent   Number of      Flow      Flow      Flow    Volume     Usage    Pump Curve
  Pump                 Utilized   Start-Ups       LPS       LPS       LPS  10^6 ltr     Kw-hr    Low   High
  ---------------------------------------------------------------------------------------------------------
  CaochengSewagePump1     77.83           1      0.00    200.00    200.00     1.146      8.81    0.0    0.0
  CaochengSewagePump2     45.11           1      0.00    200.00    200.00     0.664      5.45    0.0    0.0
  CaochengRainPump1       41.91           1      0.00    683.00    683.00     2.108      3.47    0.0   33.8
  CaochengRainPump2       36.96           1      0.00    683.00    683.00     1.859      2.92    0.0   38.3
  JiankangSewagePump      73.96           1      0.00    300.00    300.00     1.634     25.63    0.0    0.0
  JiankangRainPump1       40.45           5      0.00   1000.00   1000.00     2.979     19.79    0.0    0.0
  JiankangRainPump2        0.00           0      0.00      0.00      0.00     0.000      0.00    0.0    0.0
  XierchiSewagePump1      91.84           1      0.00     95.00     95.00     0.642      3.97    0.0    0.0
  XierchiSewagePump2      76.35           1      0.00     95.00     95.00     0.534      3.13    0.0    0.0
  XierchiSewagePump3       0.00           0      0.00      0.00      0.00     0.000      0.00    0.0    0.0
  XierchiSewagePump4       0.00           0      0.00      0.00      0.00     0.000      0.00    0.0    0.0
  

  Analysis begun on:  Tue Oct 18 08:27:02 2022
  Analysis ended on:  Tue Oct 18 08:59:20 2022
  Total elapsed time: 00:32:18