
  EPA STORM WATER MANAGEMENT MODEL - VERSION 5.1 (Build 5.3.0.dev0)
  --------------------------------------------------------------

  WARNING 04: minimum elevation drop used for Conduit WS02004404WS02004405
  WARNING 03: negative offset ignored for Link YS02001904YS02001907
  
  *********************************************************
  NOTE: The summary statistics displayed in this report are
  based on results found at every computational time step,  
  not just on results from each reporting time step.
  *********************************************************
  
  ****************
  Analysis Options
  ****************
  Flow Units ............... LPS
  Process Models:
    Rainfall/Runoff ........ YES
    RDII ................... NO
    Snowmelt ............... NO
    Groundwater ............ NO
    Flow Routing ........... YES
    Ponding Allowed ........ NO
    Water Quality .......... NO
  Infiltration Method ...... HORTON
  Flow Routing Method ...... DYNWAVE
  Surcharge Method ......... EXTRAN
  Starting Date ............ 03/31/2017 00:00:00
  Ending Date .............. 03/31/2017 03:00:00
  Antecedent Dry Days ...... 8.0
  Report Time Step ......... 00:00:30
  Wet Time Step ............ 00:01:00
  Dry Time Step ............ 00:01:00
  Routing Time Step ........ 30.00 sec
  Variable Time Step ....... YES
  Maximum Trials ........... 8
  Number of Threads ........ 6
  Head Tolerance ........... 0.001500 m
  
  
  **************************        Volume         Depth
  Runoff Quantity Continuity     hectare-m            mm
  **************************     ---------       -------
  Total Precipitation ......        10.619        90.112
  Evaporation Loss .........         0.000         0.000
  Infiltration Loss ........         0.307         2.608
  Surface Runoff ...........         9.676        82.115
  Final Storage ............         0.648         5.499
  Continuity Error (%) .....        -0.121
  
  
  **************************        Volume        Volume
  Flow Routing Continuity        hectare-m      10^6 ltr
  **************************     ---------     ---------
  Dry Weather Inflow .......         0.171         1.709
  Wet Weather Inflow .......         9.650        96.500
  Groundwater Inflow .......         0.000         0.000
  RDII Inflow ..............         0.000         0.000
  External Inflow ..........         0.034         0.335
  External Outflow .........         5.131        51.311
  Flooding Loss ............         4.477        44.772
  Evaporation Loss .........         0.000         0.000
  Exfiltration Loss ........         0.000         0.000
  Initial Stored Volume ....         0.303         3.031
  Final Stored Volume ......         0.579         5.795
  Continuity Error (%) .....        -0.298
  
  
  *************************
  Highest Continuity Errors
  *************************
  Node WS02005193 (58.54%)
  Node YS02001884 (26.67%)
  Node YS02004320 (5.46%)
  Node YS02001774 (5.26%)
  Node HS02003116 (5.03%)
  
  
  ***************************
  Time-Step Critical Elements
  ***************************
  Link YS02005655YS02005657 (46.70%)
  Link WS02006252WS02006251 (21.40%)
  Link WS02004041WS6409 (14.56%)
  Link WS02003073WS02003076 (2.03%)
  Link WS02006280WS02006229 (1.97%)
  
  
  ********************************
  Highest Flow Instability Indexes
  ********************************
  Link WS02006238WS02006235 (75)
  Link WS02003215WS02003116 (73)
  Link WS02003122WS02003187 (72)
  Link WS02003200WS02003201 (71)
  Link WS02004404WS02004405 (68)
  
  
  *************************
  Routing Time Step Summary
  *************************
  Minimum Time Step           :     0.50 sec
  Average Time Step           :     0.96 sec
  Maximum Time Step           :    30.00 sec
  Percent in Steady State     :     0.00
  Average Iterations per Step :     6.54
  Percent Not Converging      :    41.90
  
  
  ***************************
  Subcatchment Runoff Summary
  ***************************
  
  ------------------------------------------------------------------------------------------------------------------------------
                            Total      Total      Total      Total     Imperv       Perv      Total       Total     Peak  Runoff
                           Precip      Runon       Evap      Infil     Runoff     Runoff     Runoff      Runoff   Runoff   Coeff
  Subcatchment                 mm         mm         mm         mm         mm         mm         mm    10^6 ltr      LPS
  ------------------------------------------------------------------------------------------------------------------------------
  sub0                      90.11       0.00       0.00       0.49      47.51       3.07      87.60        0.07    50.16   0.972
  sub1                      90.11       0.00       0.00       1.15      76.45       8.04      84.49        0.56   364.75   0.938
  sub2                      90.11       0.00       0.00       3.88      53.70      23.29      76.99        0.72   371.60   0.854
  sub3                      90.11       0.00       0.00       3.88      53.01      21.63      74.64        1.68   799.68   0.828
  sub4                      90.11       0.00       0.00       1.15      73.76       7.69      81.45        1.70   880.85   0.904
  sub5                      90.11       0.00       0.00       0.70      75.48       4.89      85.35        0.97   633.93   0.947
  sub6                      90.11       0.00       0.00       0.72      77.25       5.02      84.46        2.18  1336.34   0.937
  sub7                      90.11       0.00       0.00       0.87      71.16       6.03      86.08        0.29   205.54   0.955
  sub8                      90.11       0.00       0.00       0.90      73.88       6.26      85.66        0.55   375.06   0.951
  sub9                      90.11       0.00       0.00       0.88      72.23       6.12      85.68        0.41   280.97   0.951
  sub10                     90.11       0.00       0.00       0.80      75.13       5.61      85.37        0.94   626.01   0.947
  sub11                     90.11       0.00       0.00       0.80      74.83       5.58      85.88        1.00   692.01   0.953
  sub12                     90.11       0.00       0.00       1.34      74.43       9.47      85.71        0.75   561.71   0.951
  sub13                     90.11       0.00       0.00       3.52      56.28      23.18      80.78        0.96   587.86   0.896
  sub14                     90.11       0.00       0.00       0.89      73.58       6.23      85.55        0.81   552.89   0.949
  sub15                     90.11       0.00       0.00       2.99      56.59      19.54      81.74        1.41   865.41   0.907
  sub16                     90.11       0.00       0.00       3.20      52.99      21.42      82.62        0.87   577.80   0.917
  sub17                     90.11       0.00       0.00       3.16      54.96      21.19      82.49        0.71   467.23   0.915
  sub18                     90.11       0.00       0.00       0.89      73.91       6.26      86.15        0.69   498.20   0.956
  sub19                     90.11       0.00       0.00       3.14      57.37      21.07      82.30        0.26   171.35   0.913
  sub20                     90.11       0.00       0.00       0.91      75.20       6.37      85.86        0.60   424.06   0.953
  sub21                     90.11       0.00       0.00       1.16      68.93       8.01      85.96        0.44   318.43   0.954
  sub22                     90.11       0.00       0.00       4.51      49.41      28.84      78.25        4.94  2820.65   0.868
  sub23                     90.11       0.00       0.00       3.82      53.54      25.09      80.46        3.84  2356.13   0.893
  sub24                     90.11       0.00       0.00       1.37      68.81       9.51      85.54        3.07  2211.27   0.949
  sub25                     90.11       0.00       0.00       0.73      80.63       5.21      86.92        1.13   886.20   0.965
  sub26                     90.11       0.00       0.00       2.46      65.00      17.34      84.81        1.21   954.31   0.941
  sub27                     90.11       0.00       0.00       0.93      77.23       6.54      85.23        1.23   829.34   0.946
  sub28                     90.11       0.00       0.00       0.82      77.43       5.78      85.35        1.34   896.43   0.947
  sub29                     90.11       0.00       0.00       0.84      78.11       5.84      83.95        1.35   809.81   0.932
  sub30                     90.11       0.00       0.00       0.83      78.80       5.88      86.40        1.95  1468.08   0.959
  sub31                     90.11       0.00       0.00       1.53      60.10      10.44      85.91        1.82  1357.38   0.953
  sub32                     90.11       0.00       0.00       0.82      77.70       5.80      85.98        1.71  1223.41   0.954
  sub33                     90.11       0.00       0.00       1.28      69.95       8.90      85.98        1.57  1179.40   0.954
  sub34                     90.11       0.00       0.00       5.06      41.95      34.01      79.87        1.78  1163.18   0.886
  sub35                     90.11       0.00       0.00       0.76      71.92       5.35      87.44        0.30   252.63   0.970
  sub36                     90.11       0.00       0.00       2.31      68.50      16.32      84.82        0.74   576.91   0.941
  sub37                     90.11       0.00       0.00       4.00      52.15      27.75      82.43        0.63   469.94   0.915
  sub38                     90.11       0.00       0.00       3.53      54.52      24.63      83.40        1.58  1226.11   0.925
  sub39                     90.11       0.00       0.00       0.84      80.89       6.03      86.92        0.92   744.66   0.965
  sub40                     90.11       0.00       0.00       0.82      78.73       5.86      87.01        1.01   815.91   0.966
  sub41                     90.11       0.00       0.00       1.61      70.19      11.36      85.76        1.65  1280.36   0.952
  sub42                     90.11       0.00       0.00       0.90      75.55       6.39      86.85        0.87   687.09   0.964
  sub43                     90.11       0.00       0.00       3.08      39.02      19.74      83.51        0.68   457.22   0.927
  sub44                     90.11       0.00       0.00       0.70      76.23       4.94      85.69        0.97   654.32   0.951
  sub45                     90.11       0.00       0.00       1.74      69.68      12.01      84.48        1.55  1058.06   0.938
  sub46                     90.11       0.00       0.00       6.30      30.69      41.32      76.99        0.54   309.36   0.854
  sub47                     90.11       0.00       0.00       0.80      75.23       5.61      86.15        0.66   472.38   0.956
  sub48                     90.11       0.00       0.00       0.90      74.33       6.30      85.94        0.66   466.37   0.954
  sub49                     90.11       0.00       0.00       0.82      77.35       5.77      85.63        0.78   535.50   0.950
  sub50                     90.11       0.00       0.00       0.83      78.95       5.89      85.60        0.60   412.75   0.950
  sub51                     90.11       0.00       0.00       0.81      77.10       5.75      86.22        0.41   297.69   0.957
  sub52                     90.11       0.00       0.00       0.69      74.97       4.86      85.84        0.93   633.51   0.953
  sub53                     90.11       0.00       0.00       0.80      75.41       5.63      86.09        0.87   621.16   0.955
  sub54                     90.11       0.00       0.00       0.73      78.77       5.11      85.06        0.51   329.64   0.944
  sub55                     90.11       0.00       0.00       0.81      75.76       5.66      85.39        0.68   454.97   0.948
  sub56                     90.11       0.00       0.00       1.86      63.47      12.25      82.90        1.18   699.78   0.920
  sub57                     90.11       0.00       0.00       3.11      56.33      20.17      81.11        0.52   313.54   0.900
  sub58                     90.11       0.00       0.00       7.66      23.61      43.80      67.41        2.49  1025.76   0.748
  sub59                     90.11       0.00       0.00       8.08      20.05      40.77      60.82        1.39   501.16   0.675
  sub60                     90.11       0.00       0.00       1.22      73.82       8.57      85.33        1.12   784.90   0.947
  sub61                     90.11       0.00       0.00       1.76      70.71      12.21      84.65        1.55  1089.32   0.939
  sub62                     90.11       0.00       0.00       0.83      78.39       5.86      85.02        2.33  1526.21   0.943
  sub67                     90.11       0.00       0.00       0.80      74.93       5.60      85.45        1.59  1062.77   0.948
  sub68                     90.11       0.00       0.00       1.33      65.81       9.07      85.12        2.34  1582.02   0.945
  sub71                     90.11       0.00       0.00       0.82      75.82       5.67      84.32        2.20  1343.93   0.936
  sub72                     90.11       0.00       0.00       0.69      72.65       4.73      83.80        1.15   661.93   0.930
  sub73                     90.11       0.00       0.00       1.73      51.09      11.51      85.93        0.08    62.40   0.954
  sub74                     90.11       0.00       0.00       2.95      50.86      20.02      83.95        0.14    99.26   0.932
  sub75                     90.11       0.00       0.00       2.76      52.13      18.77      84.40        0.19   139.99   0.937
  sub76                     90.11       0.00       0.00       1.64      60.20      11.21      85.83        0.21   157.54   0.952
  sub77                     90.11       0.00       0.00       1.57      61.96      10.78      86.02        0.14   104.52   0.955
  sub78                     90.11       0.00       0.00       1.25      68.31       8.69      85.97        0.24   175.07   0.954
  sub79                     90.11       0.00       0.00       2.22      56.66      14.99      84.58        0.22   155.22   0.939
  sub80                     90.11       0.00       0.00       3.14      52.00      21.33      83.51        0.24   177.48   0.927
  sub81                     90.11       0.00       0.00       3.53      49.07      23.74      82.54        0.25   173.98   0.916
  sub82                     90.11       0.00       0.00       3.55      49.41      24.01      82.73        0.25   175.91   0.918
  sub83                     90.11       0.00       0.00       3.68      49.31      25.06      82.69        0.28   200.33   0.918
  sub84                     90.11       0.00       0.00       3.42      52.01      23.00      82.43        0.45   303.31   0.915
  sub85                     90.11       0.00       0.00       2.00      49.42      13.09      85.07        0.38   264.03   0.944
  sub86                     90.11       0.00       0.00       2.47      57.18      16.77      84.16        0.41   288.12   0.934
  sub87                     90.11       0.00       0.00       3.44      52.43      23.37      82.82        0.25   176.20   0.919
  sub88                     90.11       0.00       0.00       3.34      53.34      22.82      83.06        0.25   182.28   0.922
  sub89                     90.11       0.00       0.00       2.98      54.30      20.45      83.98        0.22   167.86   0.932
  sub90                     90.11       0.00       0.00       2.61      57.84      17.96      84.37        0.21   155.47   0.936
  sub91                     90.11       0.00       0.00       2.48      54.39      16.99      84.97        0.15   118.02   0.943
  sub92                     90.11       0.00       0.00       2.76      49.57      18.82      84.77        0.13    97.91   0.941
  sub93                     90.11       0.00       0.00       2.85      51.53      19.57      84.67        0.15   120.42   0.940
  sub94                     90.11       0.00       0.00       2.84      51.30      19.40      84.45        0.18   139.43   0.937
  sub95                     90.11       0.00       0.00       2.36      45.25      15.63      85.29        0.13    95.93   0.946
  sub96                     90.11       0.00       0.00       1.70      46.51      11.17      86.35        0.16   120.05   0.958
  sub97                     90.11       0.00       0.00       6.35      34.26      44.92      79.93        0.19   149.80   0.887
  sub98                     90.11       0.00       0.00       6.99      22.47      46.82      77.32        0.25   153.95   0.858
  sub99                     90.11       0.00       0.00       7.87      17.38      50.36      73.17        0.26   125.58   0.812
  sub100                    90.11       0.00       0.00       7.87      17.33      48.14      70.93        0.25   109.31   0.787
  sub101                    90.11       0.00       0.00       7.89      17.39      48.06      70.60        0.24   103.59   0.784
  sub102                    90.11       0.00       0.00       7.50      19.52      44.03      69.92        0.21    90.65   0.776
  sub103                    90.11       0.00       0.00       7.79      18.17      44.75      68.04        0.32   131.76   0.755
  sub104                    90.11       0.00       0.00       7.80      18.19      44.32      67.49        0.35   142.48   0.749
  sub105                    90.11       0.00       0.00       8.19      15.93      46.41      66.29        0.38   144.76   0.736
  sub106                    90.11       0.00       0.00       7.90      17.38      46.72      69.20        0.35   147.36   0.768
  sub107                    90.11       0.00       0.00       8.19      15.99      50.16      70.08        0.50   211.92   0.778
  sub108                    90.11       0.00       0.00       8.35      15.32      53.87      72.37        0.67   323.83   0.803
  sub109                    90.11       0.00       0.00       6.58      30.93      43.53      76.53        1.09   625.92   0.849
  sub110                    90.11       0.00       0.00       1.84      69.32      12.85      84.94        1.78  1308.33   0.943
  sub111                    90.11       0.00       0.00       2.67      62.88      18.45      83.78        0.72   519.85   0.930
  sub112                    90.11       0.00       0.00       2.10      64.90      14.53      84.78        0.67   494.46   0.941
  sub113                    90.11       0.00       0.00       1.42      71.90       9.95      85.68        0.59   443.63   0.951
  sub114                    90.11       0.00       0.00       1.31      72.39       9.21      85.85        0.57   427.39   0.953
  sub115                    90.11       0.00       0.00       1.21      73.12       8.50      85.93        0.63   472.32   0.954
  sub116                    90.11       0.00       0.00       3.91      47.94      25.97      81.44        0.15    98.83   0.904
  sub117                    90.11       0.00       0.00       4.13      49.19      27.90      81.30        0.37   249.83   0.902
  

  ***********************
  LID Performance Summary
  ***********************

  --------------------------------------------------------------------------------------------------------------------
                                         Total      Evap     Infil   Surface    Drain    Initial     Final  Continuity
                                        Inflow      Loss      Loss   Outflow   Outflow   Storage   Storage       Error
  Subcatchment      LID Control             mm        mm        mm        mm        mm        mm        mm           %
  --------------------------------------------------------------------------------------------------------------------
  sub0              VegetativeSwale      90.11      0.00      0.14     88.21      0.00      0.00      1.84       -0.09
  sub5              VegetativeSwale      90.11      0.00      0.14     88.21      0.00      0.00      1.84       -0.09
  sub6              VegetativeSwale      90.11      0.00      0.14     88.21      0.00      0.00      1.84       -0.09
  sub7              VegetativeSwale      90.11      0.00      0.19     88.17      0.00      0.00      1.84       -0.09
  sub8              VegetativeSwale      90.11      0.00      0.19     88.17      0.00      0.00      1.84       -0.09
  sub9              VegetativeSwale      90.11      0.00      0.19     88.17      0.00      0.00      1.84       -0.09
  sub10             VegetativeSwale      90.11      0.00      0.17     88.19      0.00      0.00      1.84       -0.09
  sub11             VegetativeSwale      90.11      0.00      0.17     88.19      0.00      0.00      1.84       -0.09
  sub12             VegetativeSwale      90.11      0.00      0.27     88.09      0.00      0.00      1.84       -0.09
  sub13             VegetativeSwale      90.11      0.00      0.70     87.67      0.00      0.00      1.82       -0.09
  sub14             VegetativeSwale      90.11      0.00      0.19     88.17      0.00      0.00      1.84       -0.09
  sub15             VegetativeSwale      90.11      0.00      0.62     87.75      0.00      0.00      1.83       -0.09
  sub16             VegetativeSwale      90.11      0.00      0.68     87.69      0.00      0.00      1.82       -0.09
  sub17             VegetativeSwale      90.11      0.00      0.66     87.71      0.00      0.00      1.82       -0.09
  sub18             VegetativeSwale      90.11      0.00      0.19     88.17      0.00      0.00      1.84       -0.09
  sub19             VegetativeSwale      90.11      0.00      0.64     87.73      0.00      0.00      1.83       -0.09
  sub20             VegetativeSwale      90.11      0.00      0.19     88.17      0.00      0.00      1.84       -0.09
  sub21             VegetativeSwale      90.11      0.00      0.25     88.11      0.00      0.00      1.84       -0.09
  sub23             VegetativeSwale      90.11      0.00      0.76     87.62      0.00      0.00      1.82       -0.09
  sub24             VegetativeSwale      90.11      0.00      0.29     88.07      0.00      0.00      1.84       -0.09
  sub25             VegetativeSwale      90.11      0.00      0.14     88.21      0.00      0.00      1.84       -0.09
  sub26             VegetativeSwale      90.11      0.00      0.49     87.87      0.00      0.00      1.83       -0.09
  sub27             VegetativeSwale      90.11      0.00      0.19     88.17      0.00      0.00      1.84       -0.09
  sub28             VegetativeSwale      90.11      0.00      0.17     88.19      0.00      0.00      1.84       -0.09
  sub30             VegetativeSwale      90.11      0.00      0.17     88.19      0.00      0.00      1.84       -0.09
  sub31             VegetativeSwale      90.11      0.00      0.35     88.01      0.00      0.00      1.84       -0.09
  sub32             VegetativeSwale      90.11      0.00      0.17     88.19      0.00      0.00      1.84       -0.09
  sub33             VegetativeSwale      90.11      0.00      0.27     88.09      0.00      0.00      1.84       -0.09
  sub34             VegetativeSwale      90.11      0.00      1.03     87.36      0.00      0.00      1.81       -0.09
  sub35             VegetativeSwale      90.11      0.00      0.17     88.19      0.00      0.00      1.84       -0.09
  sub37             VegetativeSwale      90.11      0.00      0.80     87.58      0.00      0.00      1.82       -0.09
  sub38             VegetativeSwale      90.11      0.00      0.72     87.65      0.00      0.00      1.82       -0.09
  sub40             VegetativeSwale      90.11      0.00      0.17     88.19      0.00      0.00      1.84       -0.09
  sub41             VegetativeSwale      90.11      0.00      0.33     88.03      0.00      0.00      1.84       -0.09
  sub42             VegetativeSwale      90.11      0.00      0.19     88.17      0.00      0.00      1.84       -0.09
  sub43             VegetativeSwale      90.11      0.00      0.78     87.60      0.00      0.00      1.82       -0.09
  sub44             VegetativeSwale      90.11      0.00      0.14     88.21      0.00      0.00      1.84       -0.09
  sub45             VegetativeSwale      90.11      0.00      0.35     88.01      0.00      0.00      1.84       -0.09
  sub46             VegetativeSwale      90.11      0.00      1.29     87.11      0.00      0.00      1.80       -0.10
  sub47             VegetativeSwale      90.11      0.00      0.17     88.19      0.00      0.00      1.84       -0.09
  sub48             VegetativeSwale      90.11      0.00      0.19     88.17      0.00      0.00      1.84       -0.09
  sub49             VegetativeSwale      90.11      0.00      0.17     88.19      0.00      0.00      1.84       -0.09
  sub50             VegetativeSwale      90.11      0.00      0.17     88.19      0.00      0.00      1.84       -0.09
  sub51             VegetativeSwale      90.11      0.00      0.17     88.19      0.00      0.00      1.84       -0.09
  sub52             VegetativeSwale      90.11      0.00      0.14     88.21      0.00      0.00      1.84       -0.09
  sub53             VegetativeSwale      90.11      0.00      0.17     88.19      0.00      0.00      1.84       -0.09
  sub54             VegetativeSwale      90.11      0.00      0.14     88.21      0.00      0.00      1.84       -0.09
  sub55             VegetativeSwale      90.11      0.00      0.17     88.19      0.00      0.00      1.84       -0.09
  sub56             VegetativeSwale      90.11      0.00      0.39     87.97      0.00      0.00      1.83       -0.09
  sub57             VegetativeSwale      90.11      0.00      0.64     87.73      0.00      0.00      1.83       -0.09
  sub60             VegetativeSwale      90.11      0.00      0.25     88.11      0.00      0.00      1.84       -0.09
  sub61             VegetativeSwale      90.11      0.00      0.35     88.01      0.00      0.00      1.84       -0.09
  sub62             VegetativeSwale      90.11      0.00      0.17     88.19      0.00      0.00      1.84       -0.09
  sub67             VegetativeSwale      90.11      0.00      0.17     88.19      0.00      0.00      1.84       -0.09
  sub68             VegetativeSwale      90.11      0.00      0.29     88.07      0.00      0.00      1.84       -0.09
  sub71             VegetativeSwale      90.11      0.00      0.17     88.19      0.00      0.00      1.84       -0.09
  sub72             VegetativeSwale      90.11      0.00      0.14     88.21      0.00      0.00      1.84       -0.09
  sub73             VegetativeSwale      90.11      0.00      0.43     87.93      0.00      0.00      1.83       -0.09
  sub74             VegetativeSwale      90.11      0.00      0.66     87.71      0.00      0.00      1.82       -0.09
  sub75             VegetativeSwale      90.11      0.00      0.62     87.75      0.00      0.00      1.83       -0.09
  sub76             VegetativeSwale      90.11      0.00      0.37     87.99      0.00      0.00      1.84       -0.09
  sub77             VegetativeSwale      90.11      0.00      0.35     88.01      0.00      0.00      1.84       -0.09
  sub78             VegetativeSwale      90.11      0.00      0.27     88.09      0.00      0.00      1.84       -0.09
  sub79             VegetativeSwale      90.11      0.00      0.49     87.87      0.00      0.00      1.83       -0.09
  sub80             VegetativeSwale      90.11      0.00      0.68     87.69      0.00      0.00      1.82       -0.09
  sub81             VegetativeSwale      90.11      0.00      0.76     87.62      0.00      0.00      1.82       -0.09
  sub82             VegetativeSwale      90.11      0.00      0.76     87.62      0.00      0.00      1.82       -0.09
  sub83             VegetativeSwale      90.11      0.00      0.78     87.60      0.00      0.00      1.82       -0.09
  sub84             VegetativeSwale      90.11      0.00      0.72     87.65      0.00      0.00      1.82       -0.09
  sub85             VegetativeSwale      90.11      0.00      0.49     87.87      0.00      0.00      1.83       -0.09
  sub86             VegetativeSwale      90.11      0.00      0.54     87.83      0.00      0.00      1.83       -0.09
  sub87             VegetativeSwale      90.11      0.00      0.72     87.65      0.00      0.00      1.82       -0.09
  sub88             VegetativeSwale      90.11      0.00      0.70     87.67      0.00      0.00      1.82       -0.09
  sub89             VegetativeSwale      90.11      0.00      0.64     87.73      0.00      0.00      1.83       -0.09
  sub90             VegetativeSwale      90.11      0.00      0.56     87.81      0.00      0.00      1.83       -0.09
  sub91             VegetativeSwale      90.11      0.00      0.56     87.81      0.00      0.00      1.83       -0.09
  sub92             VegetativeSwale      90.11      0.00      0.64     87.73      0.00      0.00      1.83       -0.09
  sub93             VegetativeSwale      90.11      0.00      0.64     87.73      0.00      0.00      1.83       -0.09
  sub94             VegetativeSwale      90.11      0.00      0.64     87.73      0.00      0.00      1.83       -0.09
  sub95             VegetativeSwale      90.11      0.00      0.60     87.77      0.00      0.00      1.83       -0.09
  sub96             VegetativeSwale      90.11      0.00      0.45     87.91      0.00      0.00      1.83       -0.09
  sub97             VegetativeSwale      90.11      0.00      1.25     87.15      0.00      0.00      1.80       -0.10
  sub98             VegetativeSwale      90.11      0.00      1.47     86.93      0.00      0.00      1.79       -0.10
  sub99             VegetativeSwale      90.11      0.00      1.62     86.80      0.00      0.00      1.79       -0.10
  sub100            VegetativeSwale      90.11      0.00      1.62     86.80      0.00      0.00      1.79       -0.10
  sub101            VegetativeSwale      90.11      0.00      1.62     86.80      0.00      0.00      1.79       -0.10
  sub102            VegetativeSwale      90.11      0.00      1.56     86.86      0.00      0.00      1.79       -0.10
  sub103            VegetativeSwale      90.11      0.00      1.60     86.82      0.00      0.00      1.79       -0.10
  sub104            VegetativeSwale      90.11      0.00      1.60     86.82      0.00      0.00      1.79       -0.10
  sub105            VegetativeSwale      90.11      0.00      1.66     86.76      0.00      0.00      1.79       -0.10
  sub106            VegetativeSwale      90.11      0.00      1.62     86.80      0.00      0.00      1.79       -0.10
  sub107            VegetativeSwale      90.11      0.00      1.66     86.76      0.00      0.00      1.79       -0.10
  sub108            VegetativeSwale      90.11      0.00      1.68     86.74      0.00      0.00      1.79       -0.10
  sub109            VegetativeSwale      90.11      0.00      1.31     87.09      0.00      0.00      1.80       -0.10
  sub110            VegetativeSwale      90.11      0.00      0.37     87.99      0.00      0.00      1.84       -0.09
  sub111            VegetativeSwale      90.11      0.00      0.54     87.83      0.00      0.00      1.83       -0.09
  sub112            VegetativeSwale      90.11      0.00      0.43     87.93      0.00      0.00      1.83       -0.09
  sub113            VegetativeSwale      90.11      0.00      0.29     88.07      0.00      0.00      1.84       -0.09
  sub114            VegetativeSwale      90.11      0.00      0.27     88.09      0.00      0.00      1.84       -0.09
  sub115            VegetativeSwale      90.11      0.00      0.25     88.11      0.00      0.00      1.84       -0.09
  sub116            VegetativeSwale      90.11      0.00      0.82     87.56      0.00      0.00      1.82       -0.09
  sub117            VegetativeSwale      90.11      0.00      0.84     87.54      0.00      0.00      1.82       -0.09
  
  ******************
  Node Depth Summary
  ******************
  
  ---------------------------------------------------------------------------------
                                 Average  Maximum  Maximum  Time of Max    Reported
                                   Depth    Depth      HGL   Occurrence   Max Depth
  Node                 Type       Meters   Meters   Meters  days hr:min      Meters
  ---------------------------------------------------------------------------------
  WS02001211           JUNCTION     1.04     2.41     7.25     0  00:43        1.79
  WS02001212           JUNCTION     0.81     2.08     7.14     0  00:43        1.56
  WS02001213           JUNCTION     1.05     2.32     7.08     0  00:43        1.85
  WS02003069           JUNCTION     1.00     1.69     6.27     0  00:46        1.68
  WS02003072           JUNCTION     1.06     1.58     5.96     0  00:46        1.58
  WS02003073           JUNCTION     1.27     1.71     5.77     0  00:46        1.70
  WS02003076           JUNCTION     1.01     1.36     5.58     0  00:47        1.36
  WS02003060           JUNCTION     0.89     1.68     6.61     0  00:46        1.67
  WS02003066           JUNCTION     0.54     1.17     6.72     0  00:46        1.17
  WS02003059           JUNCTION     1.12     2.06     6.74     0  00:43        1.92
  WS02003115           JUNCTION     2.06     2.76     9.62     0  00:31        2.73
  WS02003116           JUNCTION     2.22     3.03     9.74     0  00:23        2.94
  WS02003118           JUNCTION     2.20     2.90     9.52     0  00:23        2.90
  WS02003215           JUNCTION     2.09     2.80     9.66     0  00:31        2.80
  WS02003110           JUNCTION     1.70     2.35     9.61     0  00:46        2.34
  WS02003111           JUNCTION     1.82     2.35     9.44     0  00:31        2.35
  WS02005155           JUNCTION     1.68     2.46     9.77     0  00:47        2.46
  WS02005154           JUNCTION     1.44     2.35     9.98     0  00:46        2.34
  WS02005193           JUNCTION     1.52     3.22    11.04     0  00:42        3.01
  WS02005196           JUNCTION     1.49     3.31    11.16     0  00:27        2.98
  WS02003067           JUNCTION     0.86     1.48     6.80     0  00:46        1.47
  WS02004401           JUNCTION     1.52     2.53     8.53     0  00:44        2.45
  WS02004402           JUNCTION     1.52     2.55     8.51     0  00:44        2.46
  WS02004403           JUNCTION     1.50     2.55     8.48     0  00:44        2.46
  WS02004404           JUNCTION     1.55     2.60     8.45     0  00:44        2.52
  WS02004406           JUNCTION     1.49     2.54     8.37     0  00:44        2.49
  WS02004409           JUNCTION     1.26     2.36     8.13     0  00:44        2.30
  WS02004410           JUNCTION     1.15     2.11     7.83     0  00:45        2.09
  WS02004411           JUNCTION     1.06     1.88     7.56     0  00:46        1.87
  WS02004412           JUNCTION     0.96     1.65     7.29     0  00:46        1.62
  WS02004413           JUNCTION     0.99     1.55     7.02     0  00:46        1.54
  WS02004405           JUNCTION     1.53     2.58     8.43     0  00:44        2.51
  WS02006109           JUNCTION     2.00     2.64     9.26     0  00:39        2.64
  WS02006110           JUNCTION     1.81     2.48     9.07     0  00:49        2.48
  WS02006111           JUNCTION     1.21     2.00     8.70     0  00:44        1.99
  WS02006112           JUNCTION     1.83     2.68     8.56     0  00:00        2.68
  WS02006113           JUNCTION     1.29     2.00     8.89     0  00:44        1.99
  WS02006115           JUNCTION     1.50     2.43     8.57     0  00:44        2.39
  WS02006116           JUNCTION     1.54     2.52     8.56     0  00:44        2.45
  WS02006230           JUNCTION     2.07     2.65     9.39     0  00:36        2.65
  WS02006231           JUNCTION     1.66     2.19     9.31     0  01:05        2.19
  WS02006232           JUNCTION     1.70     2.18     9.22     0  00:36        2.18
  WS02006234           JUNCTION     1.53     1.96     9.12     0  00:34        1.96
  WS02006235           JUNCTION     1.51     1.93     9.10     0  01:03        1.93
  WS02006238           JUNCTION     1.52     1.94     9.08     0  01:41        1.93
  WS02006240           JUNCTION     1.30     1.63     8.92     0  00:31        1.62
  WS02006242           JUNCTION     1.27     1.55     8.82     0  00:25        1.55
  WS02006243           JUNCTION     1.11     1.48     8.90     0  00:26        1.37
  WS02006245           JUNCTION     1.03     1.36     8.84     0  00:27        1.27
  WS02006247           JUNCTION     1.01     1.30     8.80     0  00:27        1.23
  WS02006248           JUNCTION     0.92     1.10     8.69     0  00:27        1.10
  WS02006249           JUNCTION     0.92     1.09     8.69     0  00:26        1.09
  WS02006239           JUNCTION     1.41     1.79     9.00     0  00:31        1.78
  WS02006251           JUNCTION     1.39     2.21     9.88     0  00:42        2.17
  WS02006252           JUNCTION     0.95     1.50     9.74     0  00:42        1.50
  WS02006253           JUNCTION     1.69     3.52    11.16     0  00:42        3.18
  WS02006256           JUNCTION     1.89     2.35     9.28     0  00:16        2.35
  WS02004138           JUNCTION     0.12     0.14     7.39     0  00:33        0.14
  WS02004139           JUNCTION     0.97     2.37     7.28     0  00:43        1.71
  WS02004407           JUNCTION     0.91     2.12     8.43     0  00:44        1.96
  WS02006228           JUNCTION     2.23     3.03     9.68     0  00:42        3.03
  WS02006229           JUNCTION     2.33     3.23     9.92     0  00:42        3.22
  WS02006280           JUNCTION     1.04     1.75    10.02     0  00:42        1.74
  WS02006284           JUNCTION     1.20     1.95    10.35     0  00:45        1.94
  WS02006287           JUNCTION     0.95     1.74    10.70     0  00:45        1.74
  WS02003091           JUNCTION     2.99     4.43    10.23     0  00:00        3.91
  WS02003203           JUNCTION     2.93     3.83     9.82     0  00:00        3.83
  WS6145               JUNCTION     0.50     2.33    10.43     0  00:46        2.31
  WS6147               JUNCTION     0.42     2.23    10.50     0  00:45        2.18
  WS6150               JUNCTION     0.41     2.21    10.54     0  00:45        2.12
  WS6152               JUNCTION     0.42     2.20    10.54     0  00:45        2.20
  WS6155               JUNCTION     0.38     2.10    10.50     0  00:45        2.10
  WS6156               JUNCTION     0.36     2.05    10.52     0  00:45        2.05
  WS6136               JUNCTION     0.43     1.90    10.85     0  00:46        1.90
  WS6140               JUNCTION     0.55     2.47    10.40     0  00:46        2.44
  WS6142               JUNCTION     0.50     2.34    10.42     0  00:46        2.33
  WS6325               JUNCTION     0.78     2.74    10.39     0  00:46        2.72
  WS6327               JUNCTION     0.64     2.58    10.40     0  00:46        2.57
  WS6329               JUNCTION     0.59     2.52    10.40     0  00:46        2.50
  WS6332               JUNCTION     0.51     2.54    10.57     0  00:44        2.35
  WS6158               JUNCTION     0.33     2.05    10.59     0  00:45        2.05
  WS6335               JUNCTION     0.50     2.60    10.67     0  00:44        2.39
  WS6338               JUNCTION     0.44     2.55    10.75     0  00:44        2.45
  WS6340               JUNCTION     0.39     2.50    10.84     0  00:44        2.50
  WS6342               JUNCTION     0.31     2.50    11.10     0  00:44        2.23
  WS6135               JUNCTION     0.94     2.90    10.40     0  00:46        2.88
  WS6396               JUNCTION     0.60     2.02     9.57     0  00:46        2.01
  WS6399               JUNCTION     0.37     1.37     8.80     0  00:46        1.36
  WS02003082           JUNCTION     1.43     1.93     7.00     0  00:46        1.92
  WS02003077           JUNCTION     0.50     0.85     5.85     0  00:46        0.84
  WS02003080           JUNCTION     0.93     1.30     6.24     0  00:46        1.30
  WS02003083           JUNCTION     1.83     2.41     7.44     0  00:46        2.40
  WS02003084           JUNCTION     1.97     2.60     7.70     0  00:47        2.60
  WS02003085           JUNCTION     2.06     2.72     7.89     0  00:45        2.71
  WS02003086           JUNCTION     2.31     3.03     8.23     0  00:46        3.02
  WS02003087           JUNCTION     2.59     3.36     8.57     0  00:49        3.35
  WS02003088           JUNCTION     2.79     4.14     9.43     0  00:00        4.07
  WS02003089           JUNCTION     2.93     4.34     9.80     0  00:00        4.02
  WS02003090           JUNCTION     3.15     4.12     9.55     0  00:00        4.05
  WS02003081           JUNCTION     1.17     1.61     6.66     0  00:46        1.61
  WS02003122           JUNCTION     2.39     3.30     9.67     0  00:22        3.11
  WS02003187           JUNCTION     2.41     3.11     9.44     0  00:22        3.11
  WS02003188           JUNCTION     2.38     2.97     9.23     0  00:22        2.97
  WS02003190           JUNCTION     2.35     2.84     9.04     0  00:22        2.84
  WS02003193           JUNCTION     2.34     2.85     9.09     0  00:22        2.85
  WS02003195           JUNCTION     2.37     2.93     9.18     0  00:22        2.93
  WS02003196           JUNCTION     2.49     3.13     9.31     0  00:45        3.11
  WS02003198           JUNCTION     2.53     3.22     9.40     0  00:45        3.21
  WS02003200           JUNCTION     2.30     2.99     9.42     0  00:28        2.93
  WS02003201           JUNCTION     2.57     3.22     9.36     0  00:28        3.22
  WS02003202           JUNCTION     2.73     4.17    10.23     0  00:00        3.48
  WS02004041           JUNCTION     0.68     0.98     5.34     0  00:47        0.98
  WSA6400              JUNCTION     1.22     2.45     8.29     0  00:45        2.41
  WS6400               JUNCTION     0.55     1.71     8.37     0  00:45        1.68
  WSF208               JUNCTION     0.91     1.97     8.06     0  00:45        1.94
  WSF207               JUNCTION     0.79     1.72     7.85     0  00:45        1.68
  WSF206               JUNCTION     0.87     1.76     7.69     0  00:45        1.73
  WSF205               JUNCTION     0.80     1.62     7.52     0  00:45        1.61
  WSF204               JUNCTION     1.32     2.17     7.33     0  00:46        2.16
  WSF203               JUNCTION     0.69     1.36     7.07     0  00:46        1.36
  WSF202               JUNCTION     0.60     1.19     6.92     0  00:46        1.19
  WSF201               JUNCTION     0.51     1.04     6.77     0  00:46        1.04
  WSF200               JUNCTION     0.68     1.45     6.69     0  00:46        1.45
  HS02004901           JUNCTION     0.78     1.42    11.24     0  00:39        1.42
  HS02004881           JUNCTION     0.64     2.15    11.18     0  00:42        2.14
  HS02004876           JUNCTION     0.78     2.16    11.19     0  00:46        2.16
  HS02004870           JUNCTION     0.67     2.10    11.39     0  00:42        2.04
  HS02004862           JUNCTION     0.68     2.00    11.38     0  00:42        2.00
  HS02004856           JUNCTION     0.70     2.07    11.50     0  00:42        2.03
  HS02004852           JUNCTION     0.65     2.08    11.59     0  00:42        1.97
  HS02004848           JUNCTION     0.63     2.03    11.63     0  00:42        1.91
  HS02004842           JUNCTION     0.94     2.22    11.49     0  00:42        2.22
  HS02004837           JUNCTION     0.65     1.95    11.53     0  00:42        1.91
  HS02004830           JUNCTION     0.73     2.01    11.48     0  00:42        1.99
  HS02004824           JUNCTION     0.77     2.01    11.41     0  00:45        2.01
  HS02004817           JUNCTION     1.25     2.41    11.26     0  00:42        2.41
  HS02004807           JUNCTION     0.93     1.92    11.09     0  00:42        1.92
  HS02004802           JUNCTION     0.93     1.81    10.93     0  00:44        1.80
  HS02004799           JUNCTION     1.02     1.76    10.97     0  00:40        1.76
  HS02004792           JUNCTION     0.82     1.60    11.12     0  00:37        1.60
  HS02004788           JUNCTION     0.63     1.42    11.32     0  00:40        1.37
  HS02004785           JUNCTION     0.67     1.49    11.39     0  00:39        1.37
  HS02004777           JUNCTION     0.79     1.48    11.28     0  00:39        1.47
  HS02004770           JUNCTION     0.77     1.42    11.25     0  00:39        1.42
  HS02004480           JUNCTION     0.91     1.67    10.92     0  00:42        1.64
  HS02004479           JUNCTION     0.95     1.69    10.90     0  00:42        1.67
  HS02004478           JUNCTION     0.81     1.59    10.82     0  00:44        1.58
  HS02004053           JUNCTION     0.32     1.90    10.67     0  00:44        1.10
  HS02004052           JUNCTION     0.40     1.50    11.15     0  00:44        1.38
  HS02004049           JUNCTION     0.24     1.04    11.72     0  00:45        0.86
  HS02004048           JUNCTION     0.54     1.70    12.60     0  00:43        1.70
  HS02004046           JUNCTION     0.49     1.80    13.52     0  00:46        1.80
  HS02004043           JUNCTION     0.30     2.24    14.93     0  00:46        2.16
  HS02004041           JUNCTION     0.16     1.82    17.27     0  00:46        1.08
  HS02004038           JUNCTION     0.14     0.39    19.07     0  00:47        0.39
  HS02004036           JUNCTION     0.00     0.00    22.46     0  00:00        0.00
  HS02004034           JUNCTION     0.00     0.00    26.83     0  00:00        0.00
  HS02004028           JUNCTION     0.21     0.51    37.36     0  00:43        0.51
  HS02004027           JUNCTION     0.17     0.34    36.47     0  00:43        0.34
  HS02004026           JUNCTION     0.17     0.35    35.75     0  00:43        0.35
  HS02004024           JUNCTION     0.18     0.42    34.63     0  00:43        0.40
  HS02004022           JUNCTION     0.25     0.80    33.84     0  00:43        0.80
  HS02004021           JUNCTION     0.30     0.81    32.54     0  00:41        0.81
  HS02004019           JUNCTION     0.36     0.80    31.76     0  00:40        0.80
  HS02004018           JUNCTION     0.25     0.60    33.81     0  00:43        0.60
  HS02004017           JUNCTION     0.23     0.53    34.37     0  00:43        0.53
  HS02004013           JUNCTION     0.17     0.72    35.86     0  00:46        0.72
  HS02004010           JUNCTION     0.06     0.19    38.06     0  00:47        0.19
  HS02003174           JUNCTION     0.20     0.49     6.02     0  00:48        0.49
  HS02003171           JUNCTION     0.22     0.54     6.22     0  00:47        0.54
  HS02003170           JUNCTION     0.26     0.50     6.95     0  00:47        0.50
  HS02003168           JUNCTION     0.14     0.34     6.83     0  00:47        0.34
  HS02003166           JUNCTION     0.25     0.51     6.98     0  00:47        0.51
  HS02003162           JUNCTION     0.24     0.42    30.67     0  00:40        0.42
  HS02003160           JUNCTION     0.18     0.39    28.45     0  00:46        0.39
  HS02003150           JUNCTION     0.19     0.42    26.43     0  00:46        0.42
  HS02003148           JUNCTION     0.21     0.54    22.28     0  00:46        0.54
  HS02003145           JUNCTION     0.28     0.81    14.68     0  00:44        0.81
  HS02003143           JUNCTION     0.40     0.80    13.27     0  00:37        0.80
  HS02003138           JUNCTION     0.27     0.63     7.12     0  01:41        0.63
  HS02003136           JUNCTION     1.54     2.28    10.00     0  00:00        2.28
  HS02003125           JUNCTION     1.61     2.36     9.81     0  00:31        2.31
  HS02003122           JUNCTION     1.65     2.52     9.95     0  00:31        2.42
  HS02003119           JUNCTION     1.41     2.60    10.32     0  00:31        2.23
  HS02003116           JUNCTION     1.08     2.43    10.55     0  00:31        1.86
  HS02003111           JUNCTION     0.48     0.97     9.98     0  00:47        0.97
  HS02003108           JUNCTION     0.39     1.05    10.16     0  00:46        1.05
  HS02003100           JUNCTION     0.28     1.05    10.29     0  00:46        1.05
  HS02003088           JUNCTION     0.24     1.11    10.41     0  00:46        1.11
  HS02003084           JUNCTION     0.12     1.06    10.49     0  00:46        1.06
  HS02003079           JUNCTION     0.08     1.00    10.52     0  00:46        0.94
  HS02003077           JUNCTION     0.02     0.56    10.30     0  00:47        0.55
  HS02003065           JUNCTION     0.74     1.67    10.90     0  00:47        1.66
  HS02003056           JUNCTION     0.78     1.77    10.71     0  00:46        1.76
  HS02003053           JUNCTION     0.56     1.66    10.96     0  00:35        1.66
  HS02003042           JUNCTION     0.39     1.69    11.35     0  00:43        1.48
  HS02003039           JUNCTION     0.43     1.80    11.45     0  00:43        1.63
  HS02003036           JUNCTION     0.24     1.41    11.47     0  00:43        1.41
  HS02003028           JUNCTION     0.36     1.40    11.14     0  00:43        1.40
  HS02003021           JUNCTION     0.39     1.55    10.92     0  00:42        1.49
  HS02003018           JUNCTION     0.40     1.48    10.69     0  00:42        1.48
  HS02003017           JUNCTION     0.41     1.48    10.64     0  00:42        1.48
  HS02003013           JUNCTION     0.40     1.47    10.52     0  00:42        1.42
  HS02003010           JUNCTION     0.42     1.45    10.26     0  00:42        1.31
  HS02003007           JUNCTION     0.37     1.30     9.92     0  00:42        1.10
  HS02003004           JUNCTION     0.44     1.05     9.37     0  00:42        0.98
  HS02003001           JUNCTION     0.13     0.31     8.60     0  00:47        0.31
  YS02001738           JUNCTION     0.00     0.00     8.89     0  00:00        0.00
  YS02001739           JUNCTION     0.00     0.00     8.37     0  00:00        0.00
  YS02001742           JUNCTION     0.00     0.00     8.49     0  00:00        0.00
  YS02001745           JUNCTION     0.16     0.50     8.02     0  00:48        0.45
  YS02001748           JUNCTION     0.20     1.00     8.08     0  00:47        0.94
  YS02001751           JUNCTION     0.22     2.20     9.08     0  00:47        1.17
  YS02001754           JUNCTION     0.27     2.20     8.81     0  00:46        1.31
  YS02001762           JUNCTION     0.48     2.15     8.55     0  00:46        1.78
  YS02001765           JUNCTION     0.46     2.10     8.55     0  00:46        1.78
  YS02001767           JUNCTION     0.48     2.03     8.52     0  00:46        1.81
  YS02001770           JUNCTION     0.54     1.95     8.44     0  00:46        1.92
  YS02001774           JUNCTION     0.61     2.01     8.43     0  00:47        1.97
  YS02001779           JUNCTION     0.36     1.68     8.37     0  00:46        1.68
  YS02001882           JUNCTION     0.82     1.83     8.55     0  00:41        1.67
  YS02001884           JUNCTION     0.92     1.92     8.54     0  00:41        1.77
  YS02001759           JUNCTION     0.48     2.21     8.57     0  00:46        1.76
  YS02001887           JUNCTION     1.00     1.93     8.46     0  00:41        1.85
  YS02001890           JUNCTION     1.02     1.81     8.32     0  00:41        1.81
  YS02001898           JUNCTION     0.79     1.64     8.37     0  00:41        1.56
  YS02001901           JUNCTION     0.89     1.69     8.30     0  00:42        1.67
  YS02001904           JUNCTION     0.87     1.65     8.28     0  00:42        1.64
  YS02001907           JUNCTION     1.19     1.96     8.25     0  00:41        1.96
  YS02001910           JUNCTION     1.02     2.05     8.55     0  00:42        2.01
  YS02001915           JUNCTION     0.87     2.00     8.72     0  00:41        2.00
  YS02001918           JUNCTION     0.59     1.81     8.88     0  00:42        1.75
  YS02001920           JUNCTION     0.68     2.14     9.15     0  00:44        1.85
  YS02001923           JUNCTION     0.49     2.03     9.29     0  00:44        1.63
  YS02001926           JUNCTION     0.49     1.90     9.35     0  00:44        1.47
  YS02001929           JUNCTION     0.34     1.78     9.47     0  00:44        1.24
  YS02001932           JUNCTION     0.24     1.77     9.57     0  00:44        1.12
  YS02001935           JUNCTION     0.18     1.75     9.68     0  00:44        0.96
  YS02001757           JUNCTION     0.45     2.10     8.36     0  00:46        1.62
  YS02001895           JUNCTION     0.78     1.66     8.41     0  00:41        1.56
  YS02005679           JUNCTION     0.00     0.00    10.24     0  00:00        0.00
  YS02005559           JUNCTION     0.10     0.21    10.16     0  00:48        0.21
  YS02005651           JUNCTION     0.07     0.19    10.96     0  00:47        0.19
  YS02005670           JUNCTION     0.08     0.21    10.66     0  00:47        0.21
  YS02005547           JUNCTION     0.06     0.15    10.69     0  00:46        0.15
  YS02005549           JUNCTION     0.08     0.23    11.14     0  00:46        0.23
  YS02005550           JUNCTION     0.10     0.29    10.92     0  00:47        0.29
  YS02005551           JUNCTION     0.06     0.15    10.52     0  00:47        0.15
  YS02005553           JUNCTION     0.13     0.29    10.65     0  00:47        0.28
  YS02005554           JUNCTION     0.07     0.14    10.38     0  00:47        0.14
  YS02005556           JUNCTION     0.13     0.28    10.33     0  00:47        0.28
  YS02005557           JUNCTION     0.07     0.15    10.11     0  00:47        0.14
  YS02005560           JUNCTION     0.08     0.16     9.90     0  00:48        0.16
  YS02005562           JUNCTION     0.12     0.25     9.99     0  00:48        0.24
  YS02005563           JUNCTION     0.07     0.14     9.81     0  00:48        0.14
  YS02005565           JUNCTION     0.11     0.22     9.93     0  00:48        0.22
  YS02005566           JUNCTION     0.09     0.18     9.57     0  00:48        0.18
  YS02005568           JUNCTION     0.14     0.43     9.94     0  00:47        0.37
  YS02005569           JUNCTION     0.10     0.21     9.53     0  00:48        0.21
  YS02005598           JUNCTION     0.25     1.07    10.91     0  00:43        1.07
  YS02005600           JUNCTION     0.23     1.02    10.68     0  00:43        1.02
  YS02005602           JUNCTION     0.52     2.15    10.43     0  00:43        2.15
  YS02005603           JUNCTION     0.16     1.34     9.46     0  00:43        0.58
  YS02005609           JUNCTION     0.09     0.23     9.12     0  00:47        0.23
  YS02005653           JUNCTION     0.14     0.87    11.84     0  00:46        0.87
  YS02005654           JUNCTION     0.14     0.65    11.40     0  00:46        0.64
  YS02005655           JUNCTION     0.06     0.15    10.78     0  00:47        0.15
  YS02005595           JUNCTION     0.36     1.36    11.04     0  00:41        1.36
  YS02005658           JUNCTION     0.11     0.54    11.45     0  00:45        0.44
  YS02005659           JUNCTION     0.06     0.15    10.81     0  00:47        0.15
  YS02005661           JUNCTION     0.15     0.63    11.34     0  00:47        0.62
  YS02005662           JUNCTION     0.05     0.14    10.76     0  00:47        0.14
  YS02005664           JUNCTION     0.15     0.58    11.16     0  00:47        0.56
  YS02005665           JUNCTION     0.05     0.12    10.69     0  00:47        0.12
  YS02005668           JUNCTION     0.06     0.14    10.30     0  00:47        0.14
  YS02005667           JUNCTION     0.30     0.86    10.87     0  00:46        0.85
  YS02005571           JUNCTION     0.17     0.43     9.91     0  00:48        0.43
  YS02005572           JUNCTION     0.12     0.23     9.59     0  00:49        0.23
  YS02005576           JUNCTION     0.12     0.27    10.03     0  00:48        0.27
  YS02005577           JUNCTION     0.11     0.22     9.71     0  00:48        0.22
  YS02005579           JUNCTION     0.31     1.12    10.74     0  00:45        1.12
  YS02005580           JUNCTION     0.19     0.95    10.48     0  00:45        0.69
  YS02005582           JUNCTION     0.33     0.86    10.94     0  00:44        0.86
  YS02005583           JUNCTION     0.17     0.91    10.91     0  00:44        0.41
  YS02005612           JUNCTION     0.46     1.59     9.72     0  00:46        1.59
  YS02005615           JUNCTION     0.06     0.14    11.63     0  00:47        0.14
  YS02005616           JUNCTION     0.05     0.11    10.94     0  00:47        0.11
  YS02005618           JUNCTION     0.08     0.23    11.09     0  00:47        0.23
  YS02005619           JUNCTION     0.05     0.14    10.69     0  00:47        0.14
  YS02005621           JUNCTION     0.09     0.27    11.38     0  00:47        0.27
  YS02005622           JUNCTION     0.04     0.11    11.07     0  00:46        0.11
  YS02005625           JUNCTION     0.04     0.10    11.11     0  00:46        0.10
  YS02005627           JUNCTION     0.11     0.45    11.38     0  00:45        0.35
  YS02005628           JUNCTION     0.04     0.11    11.01     0  00:47        0.11
  YS02005630           JUNCTION     0.10     0.46    11.54     0  00:46        0.38
  YS02005631           JUNCTION     0.05     0.13    11.00     0  00:47        0.13
  YS02005633           JUNCTION     0.10     0.45    11.58     0  00:46        0.36
  YS02005634           JUNCTION     0.05     0.14    10.98     0  00:47        0.14
  YS02005636           JUNCTION     0.12     0.54    11.54     0  00:45        0.50
  YS02005637           JUNCTION     0.06     0.16    10.92     0  00:47        0.16
  YS02005639           JUNCTION     0.10     0.44    11.07     0  00:46        0.40
  YS02005640           JUNCTION     0.06     0.16    10.49     0  00:47        0.16
  YS02005642           JUNCTION     0.08     0.22    11.05     0  00:47        0.22
  YS02005644           JUNCTION     0.16     0.87    11.98     0  00:46        0.87
  YS02005645           JUNCTION     0.08     0.22    11.03     0  00:46        0.22
  YS02005647           JUNCTION     0.25     1.03    11.92     0  00:45        1.03
  YS02005648           JUNCTION     0.09     0.23    11.02     0  00:45        0.23
  YS02005650           JUNCTION     0.15     0.74    11.62     0  00:47        0.73
  YS02005671           JUNCTION     0.04     0.10    10.33     0  00:47        0.10
  YS02005673           JUNCTION     0.08     0.22    10.58     0  00:47        0.22
  YS02005674           JUNCTION     0.06     0.14    10.03     0  00:47        0.14
  YS02005676           JUNCTION     0.00     0.00    10.24     0  00:00        0.00
  YS02005680           JUNCTION     0.06     0.14    10.24     0  00:47        0.14
  YS02005682           JUNCTION     0.00     0.00    10.06     0  00:00        0.00
  YS02005683           JUNCTION     0.03     0.08     9.98     0  00:47        0.08
  YS02005376           JUNCTION     0.82     1.01    11.10     0  00:26        1.01
  YS02005378           JUNCTION     1.35     1.63    11.15     0  00:26        1.62
  YS02005381           JUNCTION     1.24     1.57    11.20     0  00:26        1.57
  YS02005624           JUNCTION     0.23     0.47    11.35     0  00:46        0.47
  YS02005384           JUNCTION     0.40     1.07    10.73     0  00:26        0.53
  YS02005677           JUNCTION     0.06     0.16    10.23     0  00:47        0.16
  YSB1105              JUNCTION     0.28     0.54    10.02     0  00:45        0.54
  YSB1106              JUNCTION     0.28     2.05    11.89     0  00:45        0.77
  YSB1109              JUNCTION     0.35     1.98    11.92     0  00:45        1.08
  YSB1112              JUNCTION     0.37     1.88    12.02     0  00:45        1.31
  YSB1115              JUNCTION     0.34     1.90    12.20     0  00:45        1.31
  YSB1118              JUNCTION     0.36     1.80    12.34     0  00:45        1.45
  YSB1121              JUNCTION     0.43     1.70    12.37     0  00:45        1.70
  YSB1124              JUNCTION     0.29     1.60    12.43     0  00:45        1.55
  YSB1128              JUNCTION     0.50     1.85    12.43     0  00:40        1.85
  YSB1132              JUNCTION     0.56     1.90    12.35     0  00:40        1.90
  YSB1228              JUNCTION     0.06     0.15    10.99     0  00:46        0.15
  YSB1202              JUNCTION     1.00     1.50    12.39     0  00:38        1.49
  YSB1135              JUNCTION     0.69     2.00    12.26     0  00:40        1.91
  YSB1138              JUNCTION     0.78     1.90    12.07     0  00:40        1.90
  YSB1141              JUNCTION     0.81     2.00    11.83     0  00:40        1.85
  YSB1145              JUNCTION     0.83     2.00    11.69     0  00:40        1.84
  YSB1148              JUNCTION     0.90     2.00    11.50     0  00:40        1.89
  YSB1151              JUNCTION     1.08     2.08    11.31     0  00:40        2.00
  YSB1154              JUNCTION     1.22     2.10    11.16     0  00:40        2.10
  YSB1198              JUNCTION     0.24     1.60    12.39     0  00:41        1.17
  YSB1192              JUNCTION     0.45     1.90    12.17     0  00:41        1.70
  YSB6556              JUNCTION     1.04     1.80    10.97     0  00:40        1.80
  YSB1205              JUNCTION     1.18     1.65    12.35     0  00:38        1.65
  YSB1209              JUNCTION     1.15     1.65    12.22     0  00:38        1.65
  YSB1212              JUNCTION     1.05     1.60    12.13     0  00:38        1.60
  YSB1215              JUNCTION     1.06     1.69    12.04     0  01:12        1.69
  YSB1218              JUNCTION     1.07     1.75    11.94     0  00:44        1.75
  YSB1221              JUNCTION     0.99     1.61    11.58     0  00:38        1.58
  YSB1224              JUNCTION     0.87     1.33    11.18     0  01:06        1.33
  YSB1195              JUNCTION     0.40     1.90    12.28     0  00:41        1.59
  YSB1189              JUNCTION     0.56     1.80    11.96     0  00:41        1.80
  YSB1186              JUNCTION     0.62     1.94    11.81     0  00:41        1.74
  YSB1183              JUNCTION     0.76     2.05    11.64     0  00:41        1.88
  YSB1180              JUNCTION     0.79     1.95    11.46     0  00:41        1.83
  YSB1177              JUNCTION     1.05     2.05    11.24     0  00:41        2.01
  YSB1174              JUNCTION     1.10     1.95    11.06     0  00:43        1.95
  YSB1171              JUNCTION     1.26     1.95    10.85     0  00:40        1.95
  YS02006553           JUNCTION     1.19     2.03     8.31     0  00:42        2.01
  YS02006561           JUNCTION     0.43     1.24     7.90     0  00:42        1.03
  YS02006562           JUNCTION     0.96     1.90     8.41     0  00:42        1.86
  YS02006556           JUNCTION     1.16     2.06     8.38     0  00:42        2.03
  YS02006558           JUNCTION     1.20     2.13     8.40     0  00:42        2.09
  YS6132               JUNCTION     0.61     3.12    10.45     0  00:48        2.25
  YS6137               JUNCTION     0.33     2.56    10.35     0  00:48        1.94
  YS6189               JUNCTION     0.43     2.80    10.59     0  00:48        2.03
  YS6184               JUNCTION     0.44     2.65    10.54     0  00:48        2.10
  YS6179               JUNCTION     0.38     2.60    10.58     0  00:46        2.08
  YS6176               JUNCTION     0.28     2.40    10.60     0  00:46        1.90
  YS6171               JUNCTION     0.30     2.10    10.51     0  00:46        1.90
  YS6168               JUNCTION     0.32     2.00    10.51     0  00:46        2.00
  YS6164               JUNCTION     0.14     1.90    10.63     0  00:46        1.90
  YS6162               JUNCTION     0.19     2.10    10.75     0  00:46        1.98
  YS6187               JUNCTION     0.48     2.75    10.53     0  00:48        2.01
  YS6363               JUNCTION     0.37     2.93    10.72     0  00:53        2.36
  YS6360               JUNCTION     0.49     2.94    10.74     0  00:48        2.25
  YS6354               JUNCTION     0.49     2.60    10.75     0  00:48        2.27
  YS6351               JUNCTION     0.58     2.50    10.71     0  00:48        2.29
  YS6350               JUNCTION     0.65     2.50    10.72     0  00:46        2.45
  YS6348               JUNCTION     0.61     2.45    10.85     0  00:44        2.45
  YS6344               JUNCTION     0.42     2.40    10.99     0  00:54        2.26
  YS6375               JUNCTION     0.10     0.35     8.77     0  00:47        0.35
  YS6377               JUNCTION     0.16     0.41     8.77     0  00:47        0.41
  YS6381               JUNCTION     0.18     0.48     8.61     0  00:47        0.48
  YS6386               JUNCTION     0.21     0.56     8.54     0  00:47        0.56
  YS6390               JUNCTION     0.43     0.67     8.36     0  00:47        0.67
  YS6394               JUNCTION     0.12     0.28     8.20     0  00:48        0.28
  YS6404               JUNCTION     0.56     3.00    10.23     0  00:48        1.66
  YS6401               JUNCTION     0.18     0.43     7.64     0  00:48        0.41
  YS02004319           JUNCTION     0.36     1.18    20.80     0  00:40        1.18
  YS02004320           JUNCTION     0.00     0.00    22.64     0  00:57        0.00
  YS02004321           JUNCTION     0.00     0.00    26.80     0  00:56        0.00
  YS02004307           JUNCTION     0.17     0.52    11.05     0  00:46        0.52
  YS02004309           JUNCTION     0.82     1.55    13.07     0  00:32        1.55
  YS02004312           JUNCTION     0.55     1.48    14.91     0  00:38        1.48
  YS02004314           JUNCTION     0.41     1.28    16.99     0  00:40        1.28
  YS02004316           JUNCTION     0.41     1.36    19.13     0  00:40        1.36
  YS02001783           JUNCTION     0.67     1.50     7.65     0  00:42        1.37
  YS02001784           JUNCTION     0.64     1.27     7.33     0  00:42        1.25
  YS02001786           JUNCTION     0.51     1.08     7.11     0  00:42        0.95
  YS02001788           JUNCTION     0.38     0.63     6.60     0  00:42        0.62
  YS02001790           JUNCTION     0.44     0.72     6.36     0  00:50        0.72
  YS02001791           JUNCTION     0.26     0.44     5.91     0  00:48        0.43
  YS02001793           JUNCTION     0.14     0.29     5.13     0  00:44        0.29
  YS02003309           JUNCTION     0.69     1.21     9.77     0  00:27        1.05
  YS02003306           JUNCTION     0.80     1.16     9.60     0  00:27        1.16
  YS02003269           JUNCTION     0.14     0.17     7.76     0  00:41        0.17
  YS02003272           JUNCTION     0.40     1.39     9.13     0  00:27        0.59
  YS02003278           JUNCTION     0.81     1.23     9.15     0  00:27        1.21
  YS02003281           JUNCTION     0.90     1.39     9.47     0  00:40        1.39
  YS02003284           JUNCTION     0.98     1.40     9.41     0  00:27        1.40
  YS02003287           JUNCTION     0.93     1.27     9.34     0  00:27        1.27
  YS02003290           JUNCTION     0.79     1.11     9.40     0  00:51        1.11
  YS02003294           JUNCTION     0.95     1.24     9.42     0  00:27        1.24
  YS02003275           JUNCTION     0.60     1.20     9.11     0  00:27        0.91
  YS02003297           JUNCTION     0.93     1.22     9.43     0  00:28        1.22
  YS02003300           JUNCTION     0.87     1.15     9.42     0  00:27        1.15
  YS02003303           JUNCTION     0.85     1.14     9.46     0  00:27        1.14
  YSB1227              JUNCTION     0.01     0.10    11.00     0  00:46        0.09
  CaochengRainPumpOutfall1 OUTFALL      0.00     0.00     6.00     0  00:00        0.00
  JiankangRainPumpOutfall2 OUTFALL      0.00     0.00     6.00     0  00:00        0.00
  JiankangRainPumpOutfall1 OUTFALL      0.00     0.00     6.00     0  00:00        0.00
  CaochengRainPumpOutfall2 OUTFALL      0.00     0.00     6.00     0  00:00        0.00
  YS02005684           OUTFALL      0.03     0.08     8.49     0  00:47        0.08
  YS02005681           OUTFALL      0.06     0.14     9.36     0  00:47        0.14
  YS02005678           OUTFALL      0.06     0.16     8.69     0  00:47        0.16
  YS02005675           OUTFALL      0.06     0.14     8.68     0  00:47        0.14
  YS02005672           OUTFALL      0.04     0.10     8.44     0  00:47        0.10
  YS02005669           OUTFALL      0.05     0.14     8.86     0  00:47        0.14
  YS02005666           OUTFALL      0.05     0.12     8.80     0  00:47        0.12
  YS02005663           OUTFALL      0.05     0.14     8.87     0  00:47        0.14
  YS02005660           OUTFALL      0.06     0.15     8.96     0  00:47        0.15
  YS02005657           OUTFALL      0.00     0.00     8.74     0  00:00        0.00
  YS02005652           OUTFALL      0.07     0.19     8.81     0  00:47        0.19
  YS02005649           OUTFALL      0.09     0.23     8.93     0  00:45        0.23
  YS02005646           OUTFALL      0.08     0.22     8.22     0  00:46        0.22
  YS02005643           OUTFALL      0.08     0.22     8.78     0  00:47        0.22
  YS02005641           OUTFALL      0.06     0.16     8.85     0  00:47        0.16
  YS02005638           OUTFALL      0.06     0.16     8.82     0  00:47        0.16
  YS02005635           OUTFALL      0.05     0.14     8.80     0  00:47        0.14
  YS02005632           OUTFALL      0.05     0.13     8.69     0  00:47        0.13
  YS02005629           OUTFALL      0.04     0.11     8.58     0  00:47        0.11
  YS02005626           OUTFALL      0.04     0.10     8.62     0  00:46        0.10
  YS02005623           OUTFALL      0.04     0.11     8.59     0  00:46        0.11
  YS02005620           OUTFALL      0.05     0.14     8.93     0  00:47        0.14
  YS02005617           OUTFALL      0.05     0.11     8.95     0  00:47        0.11
  YSB1103              OUTFALL      0.29     0.60     8.60     0  00:45        0.60
  YSB1229              OUTFALL      0.06     0.15     8.95     0  00:46        0.15
  YS02005548           OUTFALL      0.06     0.15     9.15     0  00:46        0.15
  YS02005552           OUTFALL      0.06     0.15     8.77     0  00:47        0.15
  YS02005555           OUTFALL      0.07     0.14     8.87     0  00:47        0.14
  YS02005558           OUTFALL      0.07     0.14     8.85     0  00:47        0.14
  YS02005561           OUTFALL      0.08     0.16     8.84     0  00:48        0.16
  YS02005564           OUTFALL      0.07     0.14     8.62     0  00:48        0.14
  YS02005567           OUTFALL      0.09     0.18     8.72     0  00:48        0.18
  YS02005570           OUTFALL      0.10     0.21     8.93     0  00:48        0.21
  YS02005574           OUTFALL      0.12     0.23     9.07     0  00:49        0.23
  YS02005578           OUTFALL      0.11     0.22     9.00     0  00:48        0.22
  WS02005134           OUTFALL      0.00     0.00     8.74     0  00:00        0.00
  YS02005581           OUTFALL      0.14     0.30     9.10     0  00:45        0.30
  YS02005584           OUTFALL      0.15     0.30     9.26     0  00:44        0.30
  YS02005593           OUTFALL      0.25     0.28     9.00     0  00:52        0.28
  YS02005596           OUTFALL      0.16     0.30     8.84     0  00:41        0.30
  YS02005374           OUTFALL      0.14     0.30     8.54     0  00:42        0.30
  YS02005375           OUTFALL      0.13     0.30     8.69     0  00:42        0.30
  YS02005607           OUTFALL      0.13     0.30     7.53     0  00:43        0.30
  YS02005610           OUTFALL      0.09     0.23     8.84     0  00:47        0.23
  YS02005613           OUTFALL      0.15     0.30     8.58     0  00:44        0.30
  HS02003172           OUTFALL      0.20     0.49     5.94     0  00:48        0.49
  YS6395               OUTFALL      0.12     0.28     6.70     0  00:48        0.28
  YS6405               OUTFALL      0.18     0.41     3.86     0  00:48        0.40
  WSC                  OUTFALL      0.62     0.80     5.00     0  00:36        0.80
  JiankangQianchi      STORAGE      2.80     4.22     5.02     0  01:08        4.19
  CaochengTiaoxuchi    STORAGE      0.90     1.40     6.90     0  00:59        1.40
  XierchiQianchi       STORAGE      7.02     7.47     5.47     0  02:02        7.47
  
  
  *******************
  Node Inflow Summary
  *******************
  
  -------------------------------------------------------------------------------------------------
                                  Maximum  Maximum                  Lateral       Total        Flow
                                  Lateral    Total  Time of Max      Inflow      Inflow     Balance
                                   Inflow   Inflow   Occurrence      Volume      Volume       Error
  Node                 Type           LPS      LPS  days hr:min    10^6 ltr    10^6 ltr     Percent
  -------------------------------------------------------------------------------------------------
  WS02001211           JUNCTION      7.35   218.61     0  01:24      0.0539        1.19       4.284
  WS02001212           JUNCTION      0.00   230.78     0  01:25           0        1.14       2.389
  WS02001213           JUNCTION      0.00   240.35     0  01:24           0        1.14       3.270
  WS02003069           JUNCTION      0.32  2519.93     0  00:47     0.00235        10.8       0.659
  WS02003072           JUNCTION      0.00  2519.85     0  00:47           0        10.8       0.562
  WS02003073           JUNCTION      1.82  3088.26     0  00:47      0.0134        14.2       0.269
  WS02003076           JUNCTION      0.00  3088.13     0  00:47           0        14.1       0.299
  WS02003060           JUNCTION     16.53  2519.72     0  00:47       0.121        10.9       0.535
  WS02003066           JUNCTION      0.00  2312.51     0  00:46           0        9.76       0.105
  WS02003059           JUNCTION      0.00   246.35     0  01:24           0        1.15       5.092
  WS02003115           JUNCTION      0.00   477.11     0  01:02           0        1.21       0.348
  WS02003116           JUNCTION      0.00   335.52     0  00:23           0        1.15       0.708
  WS02003118           JUNCTION      0.12   279.20     0  00:23    3.49e-06        1.14       1.313
  WS02003215           JUNCTION      0.17  2474.24     0  00:47       2e-05        3.23       0.829
  WS02003110           JUNCTION      0.18   472.89     0  00:47     0.00132       0.637       1.174
  WS02003111           JUNCTION      1.49   951.30     0  00:47      0.0107        1.78       0.402
  WS02005155           JUNCTION      0.38   472.70     0  00:47     0.00279       0.636       1.554
  WS02005154           JUNCTION    472.32   472.32     0  00:47       0.631       0.633       0.943
  WS02005193           JUNCTION      0.00   193.89     0  00:27           0       0.015     141.224
  WS02005196           JUNCTION      0.00   161.88     0  00:27           0      0.0056     674.826
  WS02003067           JUNCTION      0.00  1870.78     0  00:46           0        7.69       0.189
  WS02004401           JUNCTION      0.00  1105.24     0  01:35           0         5.8       0.543
  WS02004402           JUNCTION      0.00  1105.23     0  01:35           0        5.78       0.483
  WS02004403           JUNCTION      0.00  1105.54     0  01:34           0        5.76       0.419
  WS02004404           JUNCTION      0.16  1105.88     0  01:35     0.00119        5.75       0.288
  WS02004406           JUNCTION      0.00  1105.66     0  01:35           0        5.73       0.715
  WS02004409           JUNCTION      0.06  1824.54     0  00:44    6.68e-05        8.39       0.419
  WS02004410           JUNCTION      0.00  1870.49     0  00:46           0        8.46       0.422
  WS02004411           JUNCTION      0.00  1870.59     0  00:46           0         7.8       0.442
  WS02004412           JUNCTION      0.00  1870.72     0  00:46           0        7.77       0.439
  WS02004413           JUNCTION      0.00  1870.68     0  00:46           0        7.73       0.565
  WS02004405           JUNCTION      0.19  1106.25     0  01:35    0.000462        5.74       0.423
  WS02006109           JUNCTION      1.95  1308.01     0  00:00     0.00967        6.73       0.336
  WS02006110           JUNCTION      0.36  1104.76     0  01:35    0.000305        5.96      -0.327
  WS02006111           JUNCTION      0.04  1176.04     0  00:00     1.2e-05        5.95      -0.296
  WS02006112           JUNCTION      0.48  2307.30     0  00:00    2.47e-05        5.97       0.277
  WS02006113           JUNCTION      0.07  1104.76     0  01:35    4.19e-05        5.94      -0.357
  WS02006115           JUNCTION      0.00  1366.62     0  00:00           0        5.85       0.563
  WS02006116           JUNCTION      0.37  1105.24     0  01:35    0.000483        5.82       0.468
  WS02006230           JUNCTION     10.39  1027.88     0  00:44      0.0754        3.67       0.450
  WS02006231           JUNCTION      0.55   453.38     0  00:57     0.00156        2.14       0.764
  WS02006232           JUNCTION      0.26   453.52     0  01:11    0.000164        2.15       0.837
  WS02006234           JUNCTION      0.10   453.34     0  01:11    3.05e-06        2.16       0.568
  WS02006235           JUNCTION      0.27   414.93     0  01:10     0.00054         2.2       0.498
  WS02006238           JUNCTION      0.00   415.37     0  01:38           0        2.21       0.336
  WS02006240           JUNCTION      0.00   414.82     0  01:10           0        2.24       0.737
  WS02006242           JUNCTION      0.35   414.89     0  01:10    0.000101        2.26       0.874
  WS02006243           JUNCTION      0.69   286.27     0  00:25     0.00154        1.67       0.974
  WS02006245           JUNCTION      0.00   294.07     0  00:25           0        1.68       0.793
  WS02006247           JUNCTION      0.00   307.18     0  00:26           0         1.7       0.711
  WS02006248           JUNCTION      0.00   347.52     0  00:34           0        2.05       0.542
  WS02006249           JUNCTION      0.04  1386.89     0  00:47    1.33e-06        5.46       0.303
  WS02006239           JUNCTION      0.00   415.00     0  01:10           0        2.22       0.573
  WS02006251           JUNCTION      0.08  1740.63     0  00:47    0.000565        5.77       0.317
  WS02006252           JUNCTION      0.00   753.77     0  00:47           0        1.99      -0.018
  WS02006253           JUNCTION     50.16  1740.44     0  00:47      0.0708        4.74       0.433
  WS02006256           JUNCTION      0.00   300.00     0  00:31           0        1.64       0.064
  WS02004138           JUNCTION      0.00   190.00     0  00:29           0        1.17       0.245
  WS02004139           JUNCTION      0.32   190.32     0  00:33     0.00235        1.17       3.572
  WS02004407           JUNCTION      0.09  1825.09     0  00:44    9.83e-05        8.45       0.330
  WS02006228           JUNCTION      1.25  1289.13     0  00:45     0.00105        6.71       0.228
  WS02006229           JUNCTION      0.98  2306.84     0  00:44    0.000888        10.2       0.268
  WS02006280           JUNCTION      0.25  2306.20     0  00:45    0.000407        10.1       0.025
  WS02006284           JUNCTION      0.18  2306.35     0  00:44    0.000746        10.1       0.157
  WS02006287           JUNCTION      0.20  2308.09     0  00:45    9.83e-05        10.1       0.106
  WS02003091           JUNCTION      0.51  1200.35     0  00:00     0.00114        3.56      -1.107
  WS02003203           JUNCTION      0.32  2264.56     0  00:00    0.000138        5.69       0.177
  WS6145               JUNCTION      0.30   232.89     0  00:44    0.000442      0.0904       0.391
  WS6147               JUNCTION      0.00   233.23     0  00:44           0      0.0793       0.229
  WS6150               JUNCTION      0.17   234.12     0  00:44    0.000511      0.0684       0.477
[...]
  WS02003082WS02003081        1.69      1.69      1.69      1.79         1.69
  WS02003081WS02003080        1.69      1.69      1.69      1.70         1.69
  WS02003080WS02003077        0.68      0.68      1.69      1.69         0.01
  WS02003073WS02003076        0.79      0.79      1.47      0.30         0.01
  HS02004901HS02004770        0.81      0.81      0.82      0.11         0.01
  HS02004876HS02004881        0.82      0.84      0.82      1.63         0.82
  HS02004870HS02004876        0.75      0.75      0.84      0.01         0.01
  HS02004049HS02004052        0.20      0.20      0.23      0.01         0.01
  HS02004048HS02004049        0.31      0.43      0.31      0.51         0.31
  HS02004046HS02004048        0.21      0.21      0.43      0.01         0.01
  HS02004043HS02004046        0.17      0.17      0.24      0.06         0.06
  HS02004041HS02004043        0.04      0.04      0.16      0.01         0.01
  HS02004038HS02004041        0.01      0.01      0.03      0.01         0.01
  HS02004028HS02004027        0.01      0.19      0.01      0.21         0.01
  HS02003143HS02003065        0.64      0.64      0.88      0.01         0.01
  HS02004842HS02004848        0.66      0.66      0.89      0.01         0.01
  HS02004837HS02004842        0.70      0.70      0.89      0.01         0.01
  HS02004830HS02004837        0.70      0.70      0.76      0.01         0.01
  HS02004824HS02004830        0.76      0.76      0.81      0.01         0.01
  HS02004817HS02004824        0.81      0.81      1.58      0.01         0.01
  HS02004770HS02004777        0.81      0.81      0.82      0.01         0.01
  HS02004799HS02004480        0.99      0.99      1.08      1.10         0.01
  HS02004792HS02004799        0.92      0.92      1.08      0.01         0.01
  HS02004788HS02004792        0.75      0.75      0.92      0.01         0.01
  HS02004785HS02004788        0.75      0.77      0.75      1.50         0.63
  HS02004777HS02004785        0.77      0.77      0.82      0.01         0.01
  HS02004480HS02004478        0.92      0.99      0.92      1.70         0.92
  HS02004479HS02004480        1.00      1.00      1.03      0.01         0.01
  HS02003013HS02003010        0.42      0.42      0.46      0.28         0.28
  HS02003010HS02003007        0.40      0.41      0.42      0.45         0.40
  HS02003007HS02003004        0.42      0.42      0.51      0.24         0.24
  HS02003004HS02003001        0.01      0.51      0.01      1.17         0.01
  HS02003065HS02003056        0.86      0.86      1.02      0.01         0.01
  HS02003042HS02003053        0.36      0.36      0.81      0.01         0.01
  HS02003028HS02003021        0.28      0.28      0.36      0.01         0.01
  HS02003021HS02003018        0.39      0.39      0.40      0.15         0.15
  HS02003018HS02003017        0.41      0.41      0.41      0.09         0.08
  HS02003017HS02003013        0.41      0.41      0.42      0.34         0.32
  HS02004862HS02004870        0.72      0.72      0.75      0.27         0.25
  HS02004848HS02004852        0.66      0.66      0.69      0.02         0.01
  HS02004856HS02004862        0.67      0.67      0.72      0.01         0.01
  HS02004852HS02004856        0.69      0.69      0.72      0.02         0.01
  HS02004024HS02004022        0.01      0.01      0.23      0.01         0.01
  HS02004022HS02004021        0.23      0.23      0.34      0.01         0.01
  HS02004021HS02004019        0.34      0.34      0.45      0.27         0.27
  HS02004019HS02003162        0.01      0.45      0.01      0.48         0.01
  HS02004052HS02004053        0.22      0.23      0.22      0.24         0.22
  HS02003122HS02003125        1.54      1.54      1.54      0.20         0.23
  HS02003119HS02003122        1.53      1.53      1.54      0.01         0.01
  HS02003116HS02003119        1.31      1.31      1.52      0.01         0.01
  HS02003111HS02003116        0.01      0.01      1.38      0.01         0.01
  HS02004018HS02004019        0.27      0.27      0.45      0.01         0.01
  HS02003056HS02003136        0.89      0.89      1.56      0.01         0.01
  HS02004017HS02004018        0.26      0.26      0.27      0.01         0.01
  HS02004013HS02004017        0.08      0.08      0.26      0.09         0.08
  HS02004010HS02004013        0.01      0.01      0.08      0.01         0.01
  HS02004802HS02004478        0.93      0.93      1.00      0.24         0.01
  HS02004478WS02006287        0.78      0.78      0.98      0.01         0.01
  HS02003079HS02003084        0.03      0.03      0.04      0.01         0.01
  HS02003148HS02003145        0.01      0.01      0.18      0.04         0.01
  HS02003145HS02003143        0.18      0.18      0.62      0.17         0.16
  HS02003136WS02003203        1.57      1.57      1.67      0.01         0.01
  HS02003084HS02003088        0.04      0.04      0.07      0.01         0.01
  HS02003077HS02003079        0.01      0.01      0.03      0.01         0.01
  HS02003108HS02003111        0.20      0.20      0.44      0.01         0.01
  HS02003100HS02003108        0.11      0.11      0.20      0.01         0.01
  HS02003088HS02003100        0.09      0.09      0.11      0.04         0.04
  HS02004817HS02004807        0.97      0.97      1.58      0.01         0.01
  HS02004807HS02004802        0.97      0.97      0.99      0.40         0.40
  HS02003053HS02003056        0.81      0.81      1.02      0.01         0.01
  HS02003039HS02003042        0.43      0.44      0.47      0.28         0.02
  HS02003036HS02003039        0.23      0.23      0.28      0.01         0.01
  YS02001759YS02001757        0.19      0.20      0.20      0.19         0.16
  YS02001762YS02001759        0.20      0.20      0.20      0.18         0.16
  YS02001765YS02001762        0.18      0.18      0.20      0.13         0.10
  YS02001770YS02001767        0.18      0.21      0.18      0.74         0.18
  YS02001774YS02001770        0.19      0.19      0.23      0.01         0.01
  YS02001779YS02001774        0.16      0.16      0.23      0.01         0.01
  YS02001767YS02001765        0.18      0.18      0.18      0.23         0.18
  YS02006561YS02001783        0.52      0.52      0.73      0.01         0.01
  YS02001783YS02001784        0.70      0.73      0.70      0.90         0.70
  YS02001784YS02001785        0.59      0.70      0.59      1.24         0.59
  YS02001790YS02001791        0.01      0.01      0.01      0.69         0.01
  YS02001910YS02001907        0.76      0.76      0.98      0.09         0.09
  YS02001786YS02001788        0.01      0.59      0.01      1.04         0.01
  YS02001915YS02001910        0.66      0.66      0.76      0.01         0.01
  YS02001918YS02001915        0.57      0.57      0.66      0.01         0.01
  YS02001923YS02001920        0.50      0.50      0.59      0.01         0.01
  YS02001926YS02001923        0.22      0.22      0.25      0.01         0.01
  YS02001929YS02001926        0.12      0.12      0.25      0.01         0.01
  YS02001932YS02001929        0.07      0.07      0.12      0.01         0.01
  YS02001935YS02001932        0.01      0.01      0.02      0.01         0.01
  YS02001920YS02001918        0.57      0.57      0.59      0.01         0.01
  YS02003290YS02003287        1.61      1.61      1.65      0.01         0.01
  YS02003294YS02003290        1.61      1.61      1.69      0.03         0.01
  YS02003297YS02003294        1.68      1.68      1.68      0.31         0.27
  YS02003275YS02003272        1.36      1.53      1.36      1.63         1.36
  YS02003300YS02003297        1.61      1.61      1.66      0.01         0.01
  YS02003303YS02003300        1.59      1.59      1.63      0.01         0.01
  YS02005550YS02005551        0.01      0.01      0.01      0.10         0.01
  YS02005568YS02005569        0.01      0.10      0.01      0.23         0.01
  YS02005582YS02005583        0.34      0.58      0.34      0.81         0.34
  YS02003272YS02003269        0.01      1.46      0.01      1.63         0.01
  YS02003278YS02003275        1.58      1.66      1.58      1.74         1.58
  YS02003281YS02003278        1.63      1.63      1.65      1.58         1.57
  YS02003284YS02003281        1.63      1.63      1.66      1.07         0.39
  YS02003287YS02003284        1.64      1.64      1.67      0.01         0.05
  YS02003306YS02003303        1.57      1.57      1.61      0.54         0.54
  YS02003309YS02003306        1.43      1.43      1.57      0.01         0.01
  YS02005600YS02005375        0.23      0.23      0.24      0.24         0.23
  YS02005384YS02005593        0.01      1.46      0.01      1.53         0.01
  YS02005595YS02005596        0.34      0.35      0.34      0.38         0.34
  YS02005612YS02005613        0.14      0.14      1.11      0.36         0.01
  YS02005553YS02005554        0.01      0.01      0.01      0.22         0.01
  YS02005556YS02005557        0.01      0.01      0.01      0.26         0.01
  YS02005562YS02005563        0.01      0.01      0.01      0.21         0.01
  YS02005571YS02005572        0.01      0.23      0.01      0.39         0.01
  YS02005576YS02005577        0.01      0.01      0.01      0.11         0.01
  YS02005579YS02005580        0.25      0.45      0.25      0.64         0.25
  YS02005580YS02005581        0.23      0.25      0.23      0.27         0.23
  YS02005583YS02005584        0.34      0.34      0.36      0.36         0.34
  YS02006553YS02006556        0.87      0.87      1.00      0.01         0.01
  YS02006556YS02006558        0.94      0.94      1.04      0.01         0.01
  YSB6556YSB1171              1.12      1.12      1.64      0.01         0.01
  YSB1202YSB1205              1.41      1.41      1.42      0.01         0.01
  YSB1205YSB1209              1.42      1.42      1.42      0.89         0.84
  YSB1209YSB1212              1.40      1.42      1.40      1.52         1.40
  YSB1212YSB1215              1.40      1.40      1.40      0.67         0.65
  YSB1215YSB1218              1.40      1.40      1.40      0.72         0.72
  YSB1218YSB1221              1.40      1.40      1.40      1.32         1.32
  YSB1221YSB1224              1.40      1.40      1.41      1.40         1.40
  YSB1224YSB1105              1.10      1.44      1.10      1.53         1.10
  YSB1189YSB1186              0.68      0.68      0.80      0.19         0.19
  YS02001907YS02006553        1.25      1.25      1.35      0.01         0.01
  YS02006562YS02006558        0.73      0.73      1.04      0.01         0.01
  YS02006558YS02006561        0.61      0.85      0.61      1.18         0.61
  YS6184YS6187                0.18      0.18      0.20      0.10         0.12
  YS6360YS6363                0.15      0.20      0.15      0.80         0.15
  YS6354YS6360                0.25      0.25      0.26      0.25         0.23
  YS6351YS6354                0.25      0.27      0.25      0.49         0.25
  YS6350YS6351                0.27      0.31      0.27      0.83         0.27
  YS6348YS6350                0.29      0.29      0.31      0.27         0.26
  YS6344YS6348                0.29      0.29      0.36      0.01         0.01
  YS6363YS6132                0.15      0.15      0.31      0.01         0.01
  YS6137YS6132                0.23      0.23      0.41      0.01         0.01
  YS6189YS6137                0.23      0.23      0.25      1.59         0.01
  YS6187YS6189                0.18      0.18      0.20      0.35         0.01
  YS6179YS6184                0.17      0.17      0.18      0.01         0.01
  YS6176YS6179                0.10      0.10      0.17      0.01         0.01
  YS6171YS6176                0.13      0.13      0.17      0.01         0.01
  YS6168YS6171                0.13      0.13      0.13      0.09         0.08
  YS6164YS6168                0.08      0.08      0.13      0.01         0.01
  YS6162YS6164                0.12      0.12      0.13      0.01         0.01
  YS6132YS6404                0.02      0.20      0.02      0.35         0.01
  YSB1106YSB1105              0.01      0.20      0.01      0.25         0.01
  YSB1109YSB1106              0.20      0.26      0.20      0.40         0.20
  YSB1112YSB1109              0.26      0.27      0.26      0.30         0.26
  YSB1115YSB1112              0.25      0.25      0.27      0.12         0.13
  YSB1118YSB1115              0.27      0.28      0.27      0.30         0.27
  YSB1121YSB1118              0.28      0.31      0.28      0.41         0.28
  YSB1124YSB1121              0.27      0.27      0.31      0.01         0.01
  YSB1105YSB1103              0.01      0.01      0.18      0.18         0.01
  YS02001748YS02001751        0.01      0.01      0.03      0.01         0.01
  YS02001751YS02001754        0.03      0.03      0.10      0.01         0.01
  YS02001754YS02001757        0.11      0.11      0.20      0.01         0.01
  YS02001882YS02001884        0.67      0.67      0.68      0.01         0.01
  YS02001884YS02001887        0.70      0.70      0.72      0.01         0.01
  YS02001890YS02001895        0.66      0.66      0.76      0.01         0.01
  YS02001895YS02001898        0.65      0.65      0.66      0.01         0.01
  YS02001898YS02001901        0.66      0.66      0.70      0.01         0.01
  YS02001901YS02001904        0.69      0.69      0.70      0.01         0.01
  YS02001904YS02001907        0.69      0.69      1.01      0.01         0.01
  YS02001887YS02001890        0.73      0.73      0.75      0.20         0.01
  YS02004309YS02004307        0.19      1.03      0.19      1.01         0.19
  YS02004319YS02004316        0.40      0.40      0.42      0.01         0.01
  YS02005376YS02005378        1.68      1.68      1.84      0.01         0.01
  YS02005378YS02005381        1.81      1.81      1.84      0.35         0.01
  YS02005381YS02005384        1.46      1.46      1.81      1.82         0.01
  YS02005598YS02005374        0.25      0.25      0.26      0.26         0.25
  YS02005602YS02005603        0.21      0.52      0.21      0.66         0.21
  YS02005603YS02005607        0.21      0.21      0.22      0.22         0.21
  YS02005621YS02005622        0.01      0.01      0.01      0.06         0.01
  YS02005624YS02005625        0.01      0.01      0.26      0.02         0.01
  YS02005630YS02005631        0.01      0.04      0.01      0.09         0.01
  YS02005633YS02005634        0.01      0.03      0.01      0.06         0.01
  YS02005636YS02005637        0.01      0.08      0.01      0.12         0.01
  YS02005639YS02005640        0.01      0.05      0.01      0.08         0.01
  YS02005627YS02005628        0.01      0.04      0.01      0.26         0.01
  YS02005644YS02005645        0.01      0.16      0.01      0.19         0.01
  YS02005650YS02005651        0.01      0.15      0.01      0.24         0.01
  YS02005653YS02005654        0.12      0.12      0.13      0.12         0.12
  YS02005654YS02005655        0.01      0.13      0.01      0.22         0.01
  YS02005658YS02005659        0.01      0.07      0.01      0.11         0.01
  YS02005661YS02005662        0.01      0.12      0.01      0.24         0.01
  YS02005664YS02005665        0.01      0.13      0.01      0.50         0.01
  YS02005667YS02005668        0.01      0.01      0.58      0.16         0.01
  YS02005647YS02005648        0.01      0.31      0.01      0.45         0.01
  YS02004312YS02004309        0.67      0.67      1.03      0.01         0.01
  YS02004314YS02004312        0.45      0.45      0.67      0.01         0.01
  YS02004316YS02004314        0.42      0.42      0.45      0.36         0.36
  YS02004320YS02004319        0.01      0.01      0.32      0.01         0.01
  YS6404YS6401                0.01      0.02      0.01      0.79         0.01
  YSB1132YSB1135              0.68      0.68      0.74      0.01         0.01
  YSB1135YSB1138              0.74      0.74      0.78      0.01         0.01
  YSB1138YSB1141              0.78      0.78      0.87      0.46         0.47
  YSB1141YSB1145              0.85      0.85      0.88      0.45         0.43
  YSB1148YSB1151              0.97      0.97      1.25      0.01         0.01
  YSB1151YSB1154              1.08      1.08      1.45      0.01         0.01
  YSB1154YSB6556              1.12      1.12      1.45      0.48         0.01
  YSB1128YSB1132              0.65      0.65      0.68      0.01         0.01
  YSB1145YSB1148              0.88      0.88      0.97      0.01         0.01
  YSB1198YSB1195              0.31      0.31      0.62      0.01         0.01
  YSB1195YSB1192              0.62      0.62      0.65      0.01         0.01
  YSB1192YSB1189              0.65      0.65      0.69      0.01         0.01
  YSB1186YSB1183              0.74      0.74      0.87      0.01         0.01
  YSB1183YSB1180              0.87      0.87      0.92      0.23         0.24
  YSB1180YSB1177              0.92      0.92      1.31      0.01         0.01
  YSB1177YSB1174              1.31      1.31      1.57      0.24         0.25
  YSB1174YSB1171              1.25      1.25      1.61      0.19         0.19
  YSB1171HS02004479           0.96      0.96      1.41      0.01         0.01
  HS02003001HS02003166        0.01      0.01      0.04      0.01         0.01
  YS02004307HS02004052        0.01      0.01      0.23      0.01         0.01
  HS02004881HS02006253        0.82      0.82      1.55      0.01         0.01
  WS0200404049WS6136          0.21      0.21      0.31      0.01         0.01
  HS02003125WS02003215        1.54      1.54      1.56      0.01         0.01
  YS02001793JiankangQianchi        0.01      0.01      2.03      0.01         0.01
  YS02001757CaochengTiaoxuchi        0.19      0.20      0.59      0.13         0.12
  WS02004041WS6409            1.21      1.21      1.30      1.31         1.21
  WSF200WS02003060            0.31      0.31      0.60      0.01         0.01
  HS02004053WS02004407        0.22      0.22      1.25      0.01         0.01
  HS02003036HS02003028        0.23      0.23      0.34      0.01         0.01
  
  
  ***************
  Pumping Summary
  ***************
  
  ---------------------------------------------------------------------------------------------------------
                                                  Min       Avg       Max     Total     Power    % Time Off
                        Percent   Number of      Flow      Flow      Flow    Volume     Usage    Pump Curve
  Pump                 Utilized   Start-Ups       LPS       LPS       LPS  10^6 ltr     Kw-hr    Low   High
  ---------------------------------------------------------------------------------------------------------
  CaochengSewagePump1     73.56           1      0.00    200.00    200.00     1.079      8.49    0.0    0.0
  CaochengSewagePump2     43.33           1      0.00    200.00    200.00     0.635      5.37    0.0    0.0
  CaochengRainPump1       40.25           1      0.00    683.00    683.00     2.015      3.21    0.0   35.4
  CaochengRainPump2       33.30           1      0.00    683.00    683.00     1.667      2.44    0.0   42.8
  JiankangSewagePump      74.40           1      0.00    300.00    300.00     1.636     25.81    0.0    0.0
  JiankangRainPump1       39.30           5      0.00   1000.00   1000.00     2.881     18.97    0.0    0.0
  JiankangRainPump2        0.00           0      0.00      0.00      0.00     0.000      0.00    0.0    0.0
  XierchiSewagePump1      91.81           1      0.00     95.00     95.00     0.639      3.95    0.0    0.0
  XierchiSewagePump2      76.23           1      0.00     95.00     95.00     0.531      3.11    0.0    0.0
  XierchiSewagePump3       0.00           0      0.00      0.00      0.00     0.000      0.00    0.0    0.0
  XierchiSewagePump4       0.00           0      0.00      0.00      0.00     0.000      0.00    0.0    0.0
  

  Analysis begun on:  Mon Nov 21 02:08:29 2022
  Analysis ended on:  Mon Nov 21 02:41:07 2022
  Total elapsed time: 00:32:38