
  EPA STORM WATER MANAGEMENT MODEL - VERSION 5.1 (Build 5.3.0.dev0)
  --------------------------------------------------------------

  WARNING 04: minimum elevation drop used for Conduit WS02004404WS02004405
  WARNING 03: negative offset ignored for Link YS02001904YS02001907
  
  *********************************************************
  NOTE: The summary statistics displayed in this report are
  based on results found at every computational time step,  
  not just on results from each reporting time step.
  *********************************************************
  
  ****************
  Analysis Options
  ****************
  Flow Units ............... LPS
  Process Models:
    Rainfall/Runoff ........ YES
    RDII ................... NO
    Snowmelt ............... NO
    Groundwater ............ NO
    Flow Routing ........... YES
    Ponding Allowed ........ NO
    Water Quality .......... NO
  Infiltration Method ...... HORTON
  Flow Routing Method ...... DYNWAVE
  Surcharge Method ......... EXTRAN
  Starting Date ............ 03/31/2017 00:00:00
  Ending Date .............. 03/31/2017 03:00:00
  Antecedent Dry Days ...... 8.0
  Report Time Step ......... 00:00:30
  Wet Time Step ............ 00:01:00
  Dry Time Step ............ 00:01:00
  Routing Time Step ........ 30.00 sec
  Variable Time Step ....... YES
  Maximum Trials ........... 8
  Number of Threads ........ 6
  Head Tolerance ........... 0.001500 m
  
  
  **************************        Volume         Depth
  Runoff Quantity Continuity     hectare-m            mm
  **************************     ---------       -------
  Initial LID Storage ......         0.144         1.225
  Total Precipitation ......         8.786        74.557
  Evaporation Loss .........         0.000         0.000
  Infiltration Loss ........         0.275         2.331
  Surface Runoff ...........         6.500        55.162
  Final Storage ............         2.164        18.366
  Continuity Error (%) .....        -0.100
  
  
  **************************        Volume        Volume
  Flow Routing Continuity        hectare-m      10^6 ltr
  **************************     ---------     ---------
  Dry Weather Inflow .......         0.171         1.714
  Wet Weather Inflow .......         6.488        64.884
  Groundwater Inflow .......         0.000         0.000
  RDII Inflow ..............         0.000         0.000
  External Inflow ..........         0.032         0.320
  External Outflow .........         3.944        39.445
  Flooding Loss ............         2.564        25.638
  Evaporation Loss .........         0.000         0.000
  Exfiltration Loss ........         0.000         0.000
  Initial Stored Volume ....         0.303         3.031
  Final Stored Volume ......         0.519         5.192
  Continuity Error (%) .....        -0.468
  
  
  *************************
  Highest Continuity Errors
  *************************
  Node WS02005193 (56.73%)
  Node YS02001884 (20.05%)
  Node YS02001774 (10.57%)
  Node YS02004320 (9.59%)
  Node YS6162 (7.63%)
  
  
  ***************************
  Time-Step Critical Elements
  ***************************
  Link YS02005655YS02005657 (32.57%)
  Link WS02004041WS6409 (26.58%)
  Link WS02006252WS02006251 (25.96%)
  Link YS02006556YS02006558 (1.49%)
  Link WS02003073WS02003076 (1.19%)
  
  
  ********************************
  Highest Flow Instability Indexes
  ********************************
  Link WS02006238WS02006235 (63)
  Link YS02005562YS02005563 (63)
  Link WS02003200WS02003201 (59)
  Link WS02003203WS02003091 (56)
  Link WS02003215WS02003116 (55)
  
  
  *************************
  Routing Time Step Summary
  *************************
  Minimum Time Step           :     0.50 sec
  Average Time Step           :     0.95 sec
  Maximum Time Step           :    30.00 sec
  Percent in Steady State     :    -0.00
  Average Iterations per Step :     5.95
  Percent Not Converging      :    34.07
  
  
  ***************************
  Subcatchment Runoff Summary
  ***************************
  
  ------------------------------------------------------------------------------------------------------------------------------
                            Total      Total      Total      Total     Imperv       Perv      Total       Total     Peak  Runoff
                           Precip      Runon       Evap      Infil     Runoff     Runoff     Runoff      Runoff   Runoff   Coeff
  Subcatchment                 mm         mm         mm         mm         mm         mm         mm    10^6 ltr      LPS
  ------------------------------------------------------------------------------------------------------------------------------
  sub0                      74.56       0.00       0.00       0.73      67.20       4.20      71.39        0.06    44.99   0.958
  sub1                      74.56       0.00       0.00       0.93      51.36       5.22      56.59        0.38   252.44   0.759
  sub2                      74.56       0.00       0.00       3.33      38.41      15.99      54.40        0.51   271.62   0.730
  sub3                      74.56       0.00       0.00       3.20      36.55      14.38      50.93        1.15   572.48   0.683
  sub4                      74.56       0.00       0.00       0.94      50.12       5.05      55.16        1.15   624.47   0.740
  sub5                      74.56       0.00       0.00       0.57      51.56       3.23      54.79        0.62   419.79   0.735
  sub6                      74.56       0.00       0.00       0.62      55.92       3.51      59.44        1.54   965.04   0.797
  sub7                      74.56       0.00       0.00       0.59      41.25       3.38      44.63        0.15   114.46   0.599
  sub8                      74.56       0.00       0.00       0.75      52.37       4.29      56.66        0.36   257.81   0.760
  sub9                      74.56       0.00       0.00       0.69      48.23       3.95      52.18        0.25   180.01   0.700
  sub10                     74.56       0.00       0.00       0.74      57.97       4.19      62.16        0.69   461.08   0.834
  sub11                     74.56       0.00       0.00       0.74      58.70       4.23      62.94        0.73   517.22   0.844
  sub12                     74.56       0.00       0.00       0.96      44.90       5.52      50.42        0.44   344.43   0.676
  sub13                     74.56       0.00       0.00       2.79      37.32      14.90      52.22        0.62   396.98   0.700
  sub14                     74.56       0.00       0.00       0.81      56.39       4.62      61.01        0.58   401.85   0.818
  sub15                     74.56       0.00       0.00       2.66      42.63      14.16      56.79        0.98   613.47   0.762
  sub16                     74.56       0.00       0.00       3.02      42.45      16.50      58.95        0.62   422.70   0.791
  sub17                     74.56       0.00       0.00       2.84      41.76      15.51      57.28        0.49   334.89   0.768
  sub18                     74.56       0.00       0.00       0.79      55.17       4.52      59.69        0.48   355.26   0.801
  sub19                     74.56       0.00       0.00       1.95      30.21      10.84      41.05        0.13    94.08   0.551
  sub20                     74.56       0.00       0.00       0.77      53.60       4.39      57.99        0.40   296.10   0.778
  sub21                     74.56       0.00       0.00       0.94      47.84       5.37      53.21        0.27   206.62   0.714
  sub22                     74.56       0.00       0.00       3.58      32.78      18.57      51.35        3.24  1944.64   0.689
  sub23                     74.56       0.00       0.00       3.14      36.90      16.73      53.63        2.56  1627.95   0.719
  sub24                     74.56       0.00       0.00       1.20      51.09       6.82      57.91        2.08  1549.91   0.777
  sub25                     74.56       0.00       0.00       0.59      54.42       3.40      57.82        0.75   605.42   0.776
  sub26                     74.56       0.00       0.00       2.05      45.53      11.75      57.28        0.82   668.19   0.768
  sub27                     74.56       0.00       0.00       0.77      53.69       4.40      58.08        0.84   580.57   0.779
  sub28                     74.56       0.00       0.00       0.70      55.10       3.98      59.07        0.93   634.34   0.792
  sub29                     74.56       0.00       0.00       0.70      54.56       3.94      58.50        0.94   583.59   0.785
  sub30                     74.56       0.00       0.00       0.55      44.40       3.20      47.60        1.07   843.82   0.638
  sub31                     74.56       0.00       0.00       1.45      49.42       8.29      57.71        1.22   959.06   0.774
  sub32                     74.56       0.00       0.00       0.62      49.55       3.57      53.12        1.06   790.25   0.713
  sub33                     74.56       0.00       0.00       0.98      45.72       5.63      51.35        0.94   737.38   0.689
  sub34                     74.56       0.00       0.00       5.19      36.20      28.07      64.27        1.43   940.31   0.862
  sub35                     74.56       0.00       0.00       0.71      57.40       4.13      61.53        0.21   189.29   0.825
  sub36                     74.56       0.00       0.00       2.28      56.49      12.99      69.48        0.60   473.67   0.932
  sub37                     74.56       0.00       0.00       3.38      37.06      19.08      56.14        0.43   330.49   0.753
  sub38                     74.56       0.00       0.00       2.96      38.58      16.85      55.43        1.05   854.53   0.743
  sub39                     74.56       0.00       0.00       0.71      57.38       4.13      61.51        0.65   539.78   0.825
  sub40                     74.56       0.00       0.00       0.56      45.37       3.26      48.63        0.57   483.80   0.652
  sub41                     74.56       0.00       0.00       1.23      45.09       7.06      52.14        1.00   808.17   0.699
  sub42                     74.56       0.00       0.00       0.59      41.49       3.39      44.88        0.45   383.18   0.602
  sub43                     74.56       0.00       0.00       3.70      41.97      20.20      62.16        0.51   345.14   0.834
  sub44                     74.56       0.00       0.00       0.53      48.86       3.06      51.92        0.59   416.53   0.696
  sub45                     74.56       0.00       0.00       1.40      47.32       7.89      55.21        1.01   721.10   0.740
  sub46                     74.56       0.00       0.00       5.37      22.07      28.68      50.75        0.36   213.53   0.681
  sub47                     74.56       0.00       0.00       0.61      48.88       3.52      52.40        0.40   301.11   0.703
  sub48                     74.56       0.00       0.00       0.63      44.08       3.61      47.69        0.36   275.15   0.640
  sub49                     74.56       0.00       0.00       0.60      47.88       3.45      51.34        0.47   339.37   0.689
  sub50                     74.56       0.00       0.00       0.53      42.53       3.07      45.60        0.32   236.93   0.612
  sub51                     74.56       0.00       0.00       0.48      38.33       2.76      41.09        0.19   151.73   0.551
  sub52                     74.56       0.00       0.00       0.56      51.19       3.20      54.40        0.59   419.26   0.730
  sub53                     74.56       0.00       0.00       0.63      49.80       3.59      53.39        0.54   402.89   0.716
  sub54                     74.56       0.00       0.00       0.51      46.83       2.93      49.76        0.30   203.17   0.667
  sub55                     74.56       0.00       0.00       0.57      45.18       3.26      48.43        0.39   273.70   0.650
  sub56                     74.56       0.00       0.00       1.63      46.99       8.74      55.73        0.79   481.08   0.747
  sub57                     74.56       0.00       0.00       2.60      39.64      13.70      53.34        0.35   213.51   0.715
  sub58                     74.56       0.00       0.00       7.07      18.16      31.74      49.91        1.85   790.04   0.669
  sub59                     74.56       0.00       0.00       7.12      14.74      28.30      43.05        0.99   375.18   0.577
  sub60                     74.56       0.00       0.00       0.77      39.26       4.41      43.67        0.57   433.94   0.586
  sub61                     74.56       0.00       0.00       1.40      47.45       7.93      55.37        1.02   742.95   0.743
  sub62                     74.56       0.00       0.00       0.60      47.63       3.44      51.07        1.40   961.99   0.685
  sub67                     74.56       0.00       0.00       0.66      52.37       3.78      56.15        1.04   719.45   0.753
  sub68                     74.56       0.00       0.00       1.06      44.79       5.97      50.76        1.40   992.28   0.681
  sub71                     74.56       0.00       0.00       0.59      46.38       3.35      49.73        1.30   843.33   0.667
  sub72                     74.56       0.00       0.00       0.53      47.26       2.97      50.23        0.69   414.96   0.674
  sub73                     74.56       0.00       0.00       2.18      57.20      12.41      69.61        0.07    53.61   0.934
  sub74                     74.56       0.00       0.00       3.32      49.22      18.61      67.83        0.11    82.01   0.910
  sub75                     74.56       0.00       0.00       3.11      50.74      17.58      68.32        0.15   116.82   0.916
  sub76                     74.56       0.00       0.00       1.87      59.26      10.64      69.90        0.17   132.27   0.938
  sub77                     74.56       0.00       0.00       1.76      60.09      10.09      70.18        0.11    88.14   0.941
  sub78                     74.56       0.00       0.00       1.10      51.36       6.31      57.67        0.16   121.89   0.774
  sub79                     74.56       0.00       0.00       2.49      54.65      13.89      68.54        0.18   126.90   0.919
  sub80                     74.56       0.00       0.00       3.43      48.44      19.09      67.54        0.20   145.57   0.906
  sub81                     74.56       0.00       0.00       3.84      45.45      21.04      66.49        0.20   140.76   0.892
  sub82                     74.56       0.00       0.00       3.84      45.54      21.21      66.75        0.20   143.21   0.895
  sub83                     74.56       0.00       0.00       3.95      44.89      21.90      66.79        0.23   163.74   0.896
  sub84                     74.56       0.00       0.00       2.80      36.14      15.46      51.60        0.28   199.92   0.692
  sub85                     74.56       0.00       0.00       2.07      45.49      11.59      57.09        0.25   185.67   0.766
  sub86                     74.56       0.00       0.00       2.70      53.24      15.00      68.25        0.33   235.21   0.915
  sub87                     74.56       0.00       0.00       3.63      46.95      20.09      67.03        0.20   143.68   0.899
  sub88                     74.56       0.00       0.00       3.53      47.70      19.60      67.30        0.21   149.04   0.903
  sub89                     74.56       0.00       0.00       3.22      50.00      18.12      68.12        0.18   138.91   0.914
  sub90                     74.56       0.00       0.00       2.80      52.80      15.79      68.59        0.17   128.47   0.920
  sub91                     74.56       0.00       0.00       2.80      53.01      15.96      68.97        0.12    99.66   0.925
  sub92                     74.56       0.00       0.00       3.22      50.22      18.37      68.59        0.10    85.21   0.920
  sub93                     74.56       0.00       0.00       3.22      50.24      18.40      68.64        0.12   103.97   0.921
  sub94                     74.56       0.00       0.00       3.22      50.11      18.25      68.36        0.15   117.16   0.917
  sub95                     74.56       0.00       0.00       3.01      51.60      17.15      68.75        0.10    83.88   0.922
  sub96                     74.56       0.00       0.00       2.28      56.85      13.16      70.01        0.13   112.85   0.939
  sub97                     74.56       0.00       0.00       6.33      28.50      36.07      64.58        0.15   123.71   0.866
  sub98                     74.56       0.00       0.00       7.48      20.41      40.60      61.02        0.20   120.74   0.818
  sub99                     74.56       0.00       0.00       8.20      15.28      41.73      57.02        0.20    95.15   0.765
  sub100                    74.56       0.00       0.00       8.20      15.25      39.39      54.64        0.19    81.59   0.733
  sub101                    74.56       0.00       0.00       8.20      15.24      39.14      54.39        0.18    77.53   0.729
  sub102                    74.56       0.00       0.00       7.89      17.36      35.94      53.30        0.16    66.78   0.715
  sub103                    74.56       0.00       0.00       8.10      15.91      35.86      51.78        0.25    97.74   0.694
  sub104                    74.56       0.00       0.00       8.10      15.90      35.37      51.28        0.27   105.72   0.688
  sub105                    74.56       0.00       0.00       8.41      13.76      36.67      50.43        0.29   108.09   0.676
  sub106                    74.56       0.00       0.00       8.20      15.22      37.73      52.95        0.27   109.65   0.710
  sub107                    74.56       0.00       0.00       6.92      11.38      34.39      45.77        0.32   142.93   0.614
  sub108                    74.56       0.00       0.00       8.51      13.12      43.63      56.74        0.53   249.09   0.761
  sub109                    74.56       0.00       0.00       6.06      23.85      32.22      56.08        0.80   472.30   0.752
  sub110                    74.56       0.00       0.00       1.65      52.04       9.32      61.36        1.29   966.29   0.823
  sub111                    74.56       0.00       0.00       2.70      53.31      15.06      68.37        0.59   425.72   0.917
  sub112                    74.56       0.00       0.00       2.18      56.92      12.28      69.20        0.55   406.49   0.928
  sub113                    74.56       0.00       0.00       1.45      61.93       8.28      70.20        0.49   365.28   0.942
  sub114                    74.56       0.00       0.00       1.35      62.66       7.70      70.36        0.47   352.28   0.944
  sub115                    74.56       0.00       0.00       1.03      52.70       5.92      58.62        0.43   331.54   0.786
  sub116                    74.56       0.00       0.00       4.15      43.19      22.31      65.50        0.12    79.32   0.879
  sub117                    74.56       0.00       0.00       4.26      42.58      23.12      65.70        0.30   202.61   0.881
  

  ***********************
  LID Performance Summary
  ***********************

  --------------------------------------------------------------------------------------------------------------------
                                         Total      Evap     Infil   Surface    Drain    Initial     Final  Continuity
                                        Inflow      Loss      Loss   Outflow   Outflow   Storage   Storage       Error
  Subcatchment      LID Control             mm        mm        mm        mm        mm        mm        mm           %
  --------------------------------------------------------------------------------------------------------------------
  sub1              GreenRoof            74.56      0.00      0.00      0.00      0.00      7.05     81.64       -0.04
  sub2              GreenRoof            74.56      0.00      0.00      0.00      0.00      7.05     81.64       -0.04
  sub3              GreenRoof            74.56      0.00      0.00      0.00      0.00      7.05     81.64       -0.04
  sub4              GreenRoof            74.56      0.00      0.00      0.00      0.00      7.05     81.64       -0.04
  sub5              GreenRoof            74.56      0.00      0.00      0.00      0.00      7.05     81.64       -0.04
  sub6              GreenRoof            74.56      0.00      0.00      0.00      0.00      7.05     81.64       -0.04
  sub7              GreenRoof            74.56      0.00      0.00      0.00      0.00      7.05     81.64       -0.04
  sub8              GreenRoof            74.56      0.00      0.00      0.00      0.00      7.05     81.64       -0.04
  sub9              GreenRoof            74.56      0.00      0.00      0.00      0.00      7.05     81.64       -0.04
  sub10             GreenRoof            74.56      0.00      0.00      0.00      0.00      7.05     81.64       -0.04
  sub11             GreenRoof            74.56      0.00      0.00      0.00      0.00      7.05     81.64       -0.04
  sub12             GreenRoof            74.56      0.00      0.00      0.00      0.00      7.05     81.64       -0.04
  sub13             GreenRoof            74.56      0.00      0.00      0.00      0.00      7.05     81.64       -0.04
  sub14             GreenRoof            74.56      0.00      0.00      0.00      0.00      7.05     81.64       -0.04
  sub15             GreenRoof            74.56      0.00      0.00      0.00      0.00      7.05     81.64       -0.04
  sub16             GreenRoof            74.56      0.00      0.00      0.00      0.00      7.05     81.64       -0.04
  sub17             GreenRoof            74.56      0.00      0.00      0.00      0.00      7.05     81.64       -0.04
  sub18             GreenRoof            74.56      0.00      0.00      0.00      0.00      7.05     81.64       -0.04
  sub19             GreenRoof            74.56      0.00      0.00      0.00      0.00      7.05     81.64       -0.04
  sub20             GreenRoof            74.56      0.00      0.00      0.00      0.00      7.05     81.64       -0.04
  sub21             GreenRoof            74.56      0.00      0.00      0.00      0.00      7.05     81.64       -0.04
  sub22             GreenRoof            74.56      0.00      0.00      0.00      0.00      7.05     81.64       -0.04
  sub23             GreenRoof            74.56      0.00      0.00      0.00      0.00      7.05     81.64       -0.04
  sub24             GreenRoof            74.56      0.00      0.00      0.00      0.00      7.05     81.64       -0.04
  sub25             GreenRoof            74.56      0.00      0.00      0.00      0.00      7.05     81.64       -0.04
  sub26             GreenRoof            74.56      0.00      0.00      0.00      0.00      7.05     81.64       -0.04
  sub27             GreenRoof            74.56      0.00      0.00      0.00      0.00      7.05     81.64       -0.04
  sub28             GreenRoof            74.56      0.00      0.00      0.00      0.00      7.05     81.64       -0.04
  sub29             GreenRoof            74.56      0.00      0.00      0.00      0.00      7.05     81.64       -0.04
  sub30             GreenRoof            74.56      0.00      0.00      0.00      0.00      7.05     81.64       -0.04
  sub31             GreenRoof            74.56      0.00      0.00      0.00      0.00      7.05     81.64       -0.04
  sub32             GreenRoof            74.56      0.00      0.00      0.00      0.00      7.05     81.64       -0.04
  sub33             GreenRoof            74.56      0.00      0.00      0.00      0.00      7.05     81.64       -0.04
  sub35             GreenRoof            74.56      0.00      0.00      0.00      0.00      7.05     81.64       -0.04
  sub37             GreenRoof            74.56      0.00      0.00      0.00      0.00      7.05     81.64       -0.04
  sub38             GreenRoof            74.56      0.00      0.00      0.00      0.00      7.05     81.64       -0.04
  sub39             GreenRoof            74.56      0.00      0.00      0.00      0.00      7.05     81.64       -0.04
  sub40             GreenRoof            74.56      0.00      0.00      0.00      0.00      7.05     81.64       -0.04
  sub41             GreenRoof            74.56      0.00      0.00      0.00      0.00      7.05     81.64       -0.04
  sub42             GreenRoof            74.56      0.00      0.00      0.00      0.00      7.05     81.64       -0.04
  sub43             GreenRoof            74.56      0.00      0.00      0.00      0.00      7.05     81.64       -0.04
  sub44             GreenRoof            74.56      0.00      0.00      0.00      0.00      7.05     81.64       -0.04
  sub45             GreenRoof            74.56      0.00      0.00      0.00      0.00      7.05     81.64       -0.04
  sub46             GreenRoof            74.56      0.00      0.00      0.00      0.00      7.05     81.64       -0.04
  sub47             GreenRoof            74.56      0.00      0.00      0.00      0.00      7.05     81.64       -0.04
  sub48             GreenRoof            74.56      0.00      0.00      0.00      0.00      7.05     81.64       -0.04
  sub49             GreenRoof            74.56      0.00      0.00      0.00      0.00      7.05     81.64       -0.04
  sub50             GreenRoof            74.56      0.00      0.00      0.00      0.00      7.05     81.64       -0.04
  sub51             GreenRoof            74.56      0.00      0.00      0.00      0.00      7.05     81.64       -0.04
  sub52             GreenRoof            74.56      0.00      0.00      0.00      0.00      7.05     81.64       -0.04
  sub53             GreenRoof            74.56      0.00      0.00      0.00      0.00      7.05     81.64       -0.04
  sub54             GreenRoof            74.56      0.00      0.00      0.00      0.00      7.05     81.64       -0.04
  sub55             GreenRoof            74.56      0.00      0.00      0.00      0.00      7.05     81.64       -0.04
  sub56             GreenRoof            74.56      0.00      0.00      0.00      0.00      7.05     81.64       -0.04
  sub57             GreenRoof            74.56      0.00      0.00      0.00      0.00      7.05     81.64       -0.04
  sub58             GreenRoof            74.56      0.00      0.00      0.00      0.00      7.05     81.64       -0.04
  sub59             GreenRoof            74.56      0.00      0.00      0.00      0.00      7.05     81.64       -0.04
  sub60             GreenRoof            74.56      0.00      0.00      0.00      0.00      7.05     81.64       -0.04
  sub61             GreenRoof            74.56      0.00      0.00      0.00      0.00      7.05     81.64       -0.04
  sub62             GreenRoof            74.56      0.00      0.00      0.00      0.00      7.05     81.64       -0.04
  sub67             GreenRoof            74.56      0.00      0.00      0.00      0.00      7.05     81.64       -0.04
  sub68             GreenRoof            74.56      0.00      0.00      0.00      0.00      7.05     81.64       -0.04
  sub71             GreenRoof            74.56      0.00      0.00      0.00      0.00      7.05     81.64       -0.04
  sub72             GreenRoof            74.56      0.00      0.00      0.00      0.00      7.05     81.64       -0.04
  sub78             GreenRoof            74.56      0.00      0.00      0.00      0.00      7.05     81.64       -0.04
  sub84             GreenRoof            74.56      0.00      0.00      0.00      0.00      7.05     81.64       -0.04
  sub85             GreenRoof            74.56      0.00      0.00      0.00      0.00      7.05     81.64       -0.04
  sub107            GreenRoof            74.56      0.00      0.00      0.00      0.00      7.05     81.64       -0.04
  sub109            GreenRoof            74.56      0.00      0.00      0.00      0.00      7.05     81.64       -0.04
  sub110            GreenRoof            74.56      0.00      0.00      0.00      0.00      7.05     81.64       -0.04
  sub115            GreenRoof            74.56      0.00      0.00      0.00      0.00      7.05     81.64       -0.04
  
  ******************
  Node Depth Summary
  ******************
  
  ---------------------------------------------------------------------------------
                                 Average  Maximum  Maximum  Time of Max    Reported
                                   Depth    Depth      HGL   Occurrence   Max Depth
  Node                 Type       Meters   Meters   Meters  days hr:min      Meters
  ---------------------------------------------------------------------------------
  WS02001211           JUNCTION     0.92     2.66     7.50     0  00:50        1.77
  WS02001212           JUNCTION     0.68     2.26     7.33     0  00:51        1.54
  WS02001213           JUNCTION     0.92     2.49     7.26     0  00:51        1.85
  WS02003069           JUNCTION     0.87     1.79     6.38     0  00:50        1.68
  WS02003072           JUNCTION     0.95     1.59     5.96     0  00:54        1.57
  WS02003073           JUNCTION     1.18     1.70     5.77     0  00:54        1.70
  WS02003076           JUNCTION     0.92     1.36     5.58     0  00:54        1.36
  WS02003060           JUNCTION     0.75     2.00     6.94     0  00:50        1.66
  WS02003066           JUNCTION     0.44     1.18     6.73     0  00:53        1.15
  WS02003059           JUNCTION     0.98     2.17     6.86     0  00:51        1.91
  WS02003115           JUNCTION     1.84     2.76     9.62     0  00:39        2.73
  WS02003116           JUNCTION     1.98     3.03     9.74     0  00:30        2.94
  WS02003118           JUNCTION     1.97     2.90     9.52     0  00:30        2.90
  WS02003215           JUNCTION     1.85     2.80     9.66     0  00:39        2.80
  WS02003110           JUNCTION     1.50     2.28     9.53     0  00:50        2.28
  WS02003111           JUNCTION     1.62     2.35     9.44     0  00:39        2.35
  WS02005155           JUNCTION     1.48     2.31     9.62     0  00:51        2.31
  WS02005154           JUNCTION     1.24     2.11     9.74     0  00:51        2.11
  WS02005193           JUNCTION     1.27     3.22    11.04     0  00:49        2.87
  WS02005196           JUNCTION     1.24     3.31    11.16     0  00:49        2.85
  WS02003067           JUNCTION     0.77     1.49     6.81     0  00:53        1.48
  WS02004401           JUNCTION     1.34     2.50     8.50     0  00:51        2.46
  WS02004402           JUNCTION     1.34     2.51     8.47     0  00:51        2.46
  WS02004403           JUNCTION     1.33     2.50     8.43     0  00:52        2.47
  WS02004404           JUNCTION     1.37     2.56     8.41     0  00:52        2.53
  WS02004406           JUNCTION     1.31     2.52     8.35     0  00:52        2.50
  WS02004409           JUNCTION     1.07     2.31     8.08     0  00:53        2.30
  WS02004410           JUNCTION     0.99     2.10     7.82     0  00:53        2.09
  WS02004411           JUNCTION     0.93     1.88     7.56     0  00:53        1.87
  WS02004412           JUNCTION     0.86     1.65     7.29     0  00:53        1.64
  WS02004413           JUNCTION     0.92     1.56     7.03     0  00:53        1.55
  WS02004405           JUNCTION     1.35     2.54     8.39     0  00:52        2.51
  WS02006109           JUNCTION     1.80     2.64     9.26     0  00:46        2.64
  WS02006110           JUNCTION     1.62     2.48     9.07     0  00:55        2.48
  WS02006111           JUNCTION     1.03     2.00     8.70     0  00:53        1.99
  WS02006112           JUNCTION     1.64     2.68     8.56     0  00:00        2.68
  WS02006113           JUNCTION     1.11     2.00     8.89     0  00:51        1.99
  WS02006115           JUNCTION     1.31     2.41     8.54     0  00:51        2.39
  WS02006116           JUNCTION     1.36     2.49     8.53     0  00:51        2.45
  WS02006230           JUNCTION     1.88     2.65     9.39     0  00:43        2.65
  WS02006231           JUNCTION     1.50     2.19     9.31     0  00:51        2.19
  WS02006232           JUNCTION     1.55     2.18     9.22     0  00:43        2.18
  WS02006234           JUNCTION     1.40     1.96     9.12     0  00:42        1.96
  WS02006235           JUNCTION     1.39     1.93     9.10     0  01:25        1.93
  WS02006238           JUNCTION     1.40     1.93     9.08     0  01:23        1.93
  WS02006240           JUNCTION     1.21     1.63     8.92     0  01:11        1.62
  WS02006242           JUNCTION     1.20     1.55     8.82     0  00:37        1.55
  WS02006243           JUNCTION     1.05     1.42     8.84     0  02:01        1.37
  WS02006245           JUNCTION     0.98     1.32     8.81     0  02:01        1.27
  WS02006247           JUNCTION     0.97     1.28     8.78     0  02:01        1.22
  WS02006248           JUNCTION     0.88     1.10     8.69     0  00:35        1.10
  WS02006249           JUNCTION     0.89     1.09     8.69     0  00:34        1.09
  WS02006239           JUNCTION     1.31     1.79     9.00     0  00:44        1.78
  WS02006251           JUNCTION     1.25     2.21     9.88     0  00:49        2.14
  WS02006252           JUNCTION     0.85     1.50     9.74     0  00:49        1.50
  WS02006253           JUNCTION     1.44     3.31    10.96     0  00:49        3.06
  WS02006256           JUNCTION     1.80     2.35     9.28     0  00:18        2.35
  WS02004138           JUNCTION     0.13     0.14     7.39     0  00:50        0.14
  WS02004139           JUNCTION     0.85     2.83     7.74     0  00:50        1.71
  WS02004407           JUNCTION     0.71     2.01     8.32     0  00:51        1.96
  WS02006228           JUNCTION     1.99     3.03     9.68     0  00:49        3.03
  WS02006229           JUNCTION     2.08     3.23     9.92     0  00:49        3.22
  WS02006280           JUNCTION     0.83     1.75    10.02     0  00:49        1.74
  WS02006284           JUNCTION     1.02     1.95    10.35     0  00:50        1.94
  WS02006287           JUNCTION     0.77     1.75    10.70     0  00:50        1.73
  WS02003091           JUNCTION     2.66     4.43    10.23     0  00:00        3.91
  WS02003203           JUNCTION     2.60     3.83     9.82     0  00:37        3.83
  WS6145               JUNCTION     0.28     2.33    10.43     0  00:52        2.30
  WS6147               JUNCTION     0.22     2.25    10.53     0  00:52        2.15
  WS6150               JUNCTION     0.22     2.23    10.56     0  00:52        2.13
  WS6152               JUNCTION     0.23     2.20    10.54     0  00:52        2.14
  WS6155               JUNCTION     0.20     2.10    10.50     0  00:52        2.10
  WS6156               JUNCTION     0.18     2.05    10.52     0  00:52        2.05
  WS6136               JUNCTION     0.25     1.90    10.85     0  00:50        1.90
  WS6140               JUNCTION     0.31     2.46    10.40     0  00:53        2.43
  WS6142               JUNCTION     0.27     2.34    10.42     0  00:53        2.32
  WS6325               JUNCTION     0.50     2.73    10.39     0  00:53        2.72
  WS6327               JUNCTION     0.37     2.58    10.39     0  00:54        2.55
  WS6329               JUNCTION     0.33     2.51    10.40     0  00:53        2.49
  WS6332               JUNCTION     0.28     2.46    10.49     0  00:51        2.34
  WS6158               JUNCTION     0.16     2.05    10.59     0  00:52        1.98
  WS6335               JUNCTION     0.27     2.56    10.63     0  00:51        2.30
  WS6338               JUNCTION     0.23     2.55    10.75     0  00:51        2.18
  WS6340               JUNCTION     0.20     2.50    10.84     0  00:51        2.04
  WS6342               JUNCTION     0.15     2.50    11.10     0  00:51        1.78
  WS6135               JUNCTION     0.65     2.89    10.38     0  00:54        2.87
  WS6396               JUNCTION     0.40     2.02     9.57     0  00:54        2.00
  WS6399               JUNCTION     0.24     1.37     8.80     0  00:54        1.35
  WS02003082           JUNCTION     1.29     1.93     7.00     0  00:53        1.92
  WS02003077           JUNCTION     0.43     0.84     5.85     0  00:53        0.84
  WS02003080           JUNCTION     0.85     1.30     6.24     0  00:53        1.29
  WS02003083           JUNCTION     1.65     2.41     7.44     0  00:53        2.40
  WS02003084           JUNCTION     1.78     2.60     7.70     0  00:53        2.59
  WS02003085           JUNCTION     1.86     2.72     7.89     0  00:53        2.71
  WS02003086           JUNCTION     2.08     3.02     8.23     0  00:53        3.01
  WS02003087           JUNCTION     2.34     3.36     8.57     0  00:55        3.35
  WS02003088           JUNCTION     2.51     4.14     9.43     0  00:00        4.07
  WS02003089           JUNCTION     2.62     4.34     9.80     0  00:00        4.02
  WS02003090           JUNCTION     2.83     4.43     9.86     0  00:00        4.04
  WS02003081           JUNCTION     1.05     1.61     6.66     0  00:52        1.60
  WS02003122           JUNCTION     2.16     3.11     9.48     0  00:59        3.10
  WS02003187           JUNCTION     2.18     3.11     9.44     0  00:48        3.11
  WS02003188           JUNCTION     2.18     2.97     9.23     0  00:28        2.97
  WS02003190           JUNCTION     2.18     2.84     9.04     0  00:37        2.84
  WS02003193           JUNCTION     2.16     2.85     9.09     0  00:37        2.85
  WS02003195           JUNCTION     2.17     2.93     9.18     0  00:37        2.93
  WS02003196           JUNCTION     2.27     3.11     9.29     0  00:50        3.11
  WS02003198           JUNCTION     2.29     3.20     9.38     0  00:51        3.19
  WS02003200           JUNCTION     2.05     3.00     9.43     0  00:37        2.93
  WS02003201           JUNCTION     2.31     3.22     9.36     0  00:37        3.22
  WS02003202           JUNCTION     2.44     4.17    10.23     0  00:00        3.48
  WS02004041           JUNCTION     0.60     0.98     5.34     0  00:54        0.98
  WSA6400              JUNCTION     0.98     2.42     8.26     0  00:53        2.41
  WS6400               JUNCTION     0.37     1.69     8.35     0  00:53        1.68
  WSF208               JUNCTION     0.69     1.95     8.04     0  00:53        1.94
  WSF207               JUNCTION     0.60     1.69     7.83     0  00:54        1.68
  WSF206               JUNCTION     0.68     1.74     7.67     0  00:52        1.73
  WSF205               JUNCTION     0.63     1.61     7.52     0  00:53        1.60
  WSF204               JUNCTION     1.16     2.17     7.32     0  00:53        2.15
  WSF203               JUNCTION     0.57     1.37     7.08     0  00:53        1.35
  WSF202               JUNCTION     0.50     1.20     6.93     0  00:53        1.17
  WSF201               JUNCTION     0.43     1.05     6.78     0  00:53        1.02
  WSF200               JUNCTION     0.55     1.46     6.69     0  00:53        1.44
  HS02004901           JUNCTION     0.63     1.42    11.24     0  00:46        1.42
  HS02004881           JUNCTION     0.44     2.15    11.18     0  00:49        1.76
  HS02004876           JUNCTION     0.55     2.26    11.29     0  00:49        2.02
  HS02004870           JUNCTION     0.46     2.10    11.39     0  00:49        1.95
  HS02004862           JUNCTION     0.47     2.00    11.38     0  00:49        1.96
  HS02004856           JUNCTION     0.50     2.07    11.50     0  00:49        1.96
  HS02004852           JUNCTION     0.44     2.07    11.59     0  00:49        1.91
  HS02004848           JUNCTION     0.43     2.04    11.64     0  00:49        1.85
  HS02004842           JUNCTION     0.74     2.22    11.49     0  00:49        2.17
  HS02004837           JUNCTION     0.45     2.04    11.62     0  00:47        1.86
  HS02004830           JUNCTION     0.52     2.02    11.49     0  00:49        1.94
  HS02004824           JUNCTION     0.56     2.01    11.41     0  00:49        1.97
  HS02004817           JUNCTION     1.04     2.42    11.27     0  00:47        2.38
  HS02004807           JUNCTION     0.73     1.92    11.09     0  00:49        1.92
  HS02004802           JUNCTION     0.75     1.81    10.94     0  00:51        1.80
  HS02004799           JUNCTION     0.83     1.76    10.97     0  00:47        1.76
  HS02004792           JUNCTION     0.63     1.60    11.12     0  00:45        1.60
  HS02004788           JUNCTION     0.47     1.42    11.32     0  00:47        1.35
  HS02004785           JUNCTION     0.52     1.49    11.39     0  00:47        1.35
  HS02004777           JUNCTION     0.64     1.48    11.28     0  00:46        1.45
  HS02004770           JUNCTION     0.62     1.42    11.25     0  00:46        1.42
  HS02004480           JUNCTION     0.74     1.67    10.91     0  00:47        1.64
  HS02004479           JUNCTION     0.78     1.70    10.90     0  00:47        1.68
  HS02004478           JUNCTION     0.64     1.59    10.82     0  00:50        1.58
  HS02004053           JUNCTION     0.23     1.90    10.67     0  00:51        1.10
  HS02004052           JUNCTION     0.28     1.39    11.04     0  00:52        1.38
  HS02004049           JUNCTION     0.16     1.05    11.74     0  00:52        0.86
  HS02004048           JUNCTION     0.38     1.70    12.60     0  00:50        1.70
  HS02004046           JUNCTION     0.38     1.80    13.52     0  00:50        1.41
  HS02004043           JUNCTION     0.17     2.16    14.86     0  00:50        1.10
  HS02004041           JUNCTION     0.12     0.32    15.76     0  00:52        0.32
  HS02004038           JUNCTION     0.12     0.31    19.00     0  00:52        0.31
  HS02004036           JUNCTION     0.00     0.00    22.46     0  00:00        0.00
  HS02004034           JUNCTION     0.00     0.00    26.83     0  00:00        0.00
  HS02004028           JUNCTION     0.17     0.51    37.36     0  00:49        0.51
  HS02004027           JUNCTION     0.14     0.34    36.47     0  00:49        0.34
  HS02004026           JUNCTION     0.14     0.35    35.75     0  00:49        0.35
  HS02004024           JUNCTION     0.14     0.42    34.63     0  00:50        0.41
  HS02004022           JUNCTION     0.19     0.80    33.84     0  00:49        0.80
  HS02004021           JUNCTION     0.23     0.81    32.54     0  00:48        0.81
  HS02004019           JUNCTION     0.31     0.80    31.76     0  00:46        0.80
  HS02004018           JUNCTION     0.21     0.60    33.81     0  00:49        0.60
  HS02004017           JUNCTION     0.20     0.53    34.37     0  00:49        0.53
  HS02004013           JUNCTION     0.13     0.43    35.57     0  00:52        0.43
  HS02004010           JUNCTION     0.05     0.17    38.03     0  00:52        0.17
  HS02003174           JUNCTION     0.15     0.42     5.96     0  00:52        0.42
  HS02003171           JUNCTION     0.17     0.47     6.15     0  00:51        0.47
  HS02003170           JUNCTION     0.21     0.45     6.90     0  00:52        0.45
  HS02003168           JUNCTION     0.10     0.29     6.79     0  00:51        0.29
  HS02003166           JUNCTION     0.20     0.46     6.93     0  00:51        0.45
  HS02003162           JUNCTION     0.20     0.42    30.67     0  00:47        0.42
  HS02003160           JUNCTION     0.15     0.36    28.41     0  00:51        0.36
  HS02003150           JUNCTION     0.16     0.38    26.40     0  00:51        0.38
  HS02003148           JUNCTION     0.17     0.45    22.19     0  00:51        0.45
  HS02003145           JUNCTION     0.21     0.81    14.68     0  00:50        0.81
  HS02003143           JUNCTION     0.33     0.80    13.27     0  00:44        0.80
  HS02003138           JUNCTION     0.14     0.33     6.82     0  01:34        0.33
  HS02003136           JUNCTION     1.28     2.28    10.00     0  00:00        2.28
  HS02003125           JUNCTION     1.40     2.39     9.84     0  00:39        2.26
  HS02003122           JUNCTION     1.44     2.43     9.86     0  00:39        2.33
  HS02003119           JUNCTION     1.21     2.48    10.20     0  00:39        2.09
  HS02003116           JUNCTION     0.91     2.43    10.55     0  00:39        1.69
  HS02003111           JUNCTION     0.42     0.80     9.81     0  00:51        0.80
  HS02003108           JUNCTION     0.33     0.99    10.10     0  00:48        0.74
  HS02003100           JUNCTION     0.22     0.68     9.91     0  00:51        0.65
  HS02003088           JUNCTION     0.17     0.61     9.90     0  00:51        0.59
  HS02003084           JUNCTION     0.06     0.49     9.92     0  00:51        0.49
  HS02003079           JUNCTION     0.04     0.40     9.91     0  00:51        0.39
  HS02003077           JUNCTION     0.01     0.17     9.91     0  00:52        0.17
  HS02003065           JUNCTION     0.57     1.62    10.85     0  00:42        1.55
  HS02003056           JUNCTION     0.58     1.73    10.68     0  00:50        1.65
  HS02003053           JUNCTION     0.38     1.66    10.96     0  00:43        1.53
  HS02003042           JUNCTION     0.25     1.69    11.35     0  00:44        1.45
  HS02003039           JUNCTION     0.29     1.71    11.36     0  00:50        1.62
  HS02003036           JUNCTION     0.13     1.41    11.47     0  00:50        1.41
  HS02003028           JUNCTION     0.23     1.40    11.14     0  00:50        1.40
  HS02003021           JUNCTION     0.24     1.55    10.92     0  00:49        1.48
  HS02003018           JUNCTION     0.26     1.48    10.69     0  00:49        1.48
  HS02003017           JUNCTION     0.26     1.48    10.64     0  00:49        1.48
  HS02003013           JUNCTION     0.26     1.46    10.51     0  00:49        1.44
  HS02003010           JUNCTION     0.29     1.39    10.20     0  00:49        1.33
  HS02003007           JUNCTION     0.25     1.25     9.87     0  00:49        1.12
  HS02003004           JUNCTION     0.34     1.07     9.39     0  00:49        0.99
  HS02003001           JUNCTION     0.10     0.28     8.57     0  00:52        0.28
  YS02001738           JUNCTION     0.00     0.00     8.89     0  00:00        0.00
  YS02001739           JUNCTION     0.00     0.00     8.37     0  00:00        0.00
  YS02001742           JUNCTION     0.00     0.00     8.49     0  00:00        0.00
  YS02001745           JUNCTION     0.11     0.28     7.79     0  00:52        0.28
  YS02001748           JUNCTION     0.13     0.32     7.39     0  00:52        0.32
  YS02001751           JUNCTION     0.12     0.31     7.19     0  00:51        0.31
  YS02001754           JUNCTION     0.12     0.38     6.99     0  00:53        0.38
  YS02001762           JUNCTION     0.30     0.83     7.23     0  00:53        0.83
  YS02001765           JUNCTION     0.28     0.82     7.27     0  00:54        0.82
  YS02001767           JUNCTION     0.30     0.83     7.32     0  00:53        0.83
  YS02001770           JUNCTION     0.35     0.92     7.41     0  00:53        0.91
  YS02001774           JUNCTION     0.42     0.99     7.41     0  00:53        0.99
  YS02001779           JUNCTION     0.18     0.73     7.42     0  00:53        0.73
  YS02001882           JUNCTION     0.63     1.75     8.47     0  00:48        1.64
  YS02001884           JUNCTION     0.73     1.83     8.44     0  00:48        1.73
  YS02001759           JUNCTION     0.30     0.82     7.19     0  00:53        0.82
  YS02001887           JUNCTION     0.81     1.86     8.39     0  00:48        1.82
  YS02001890           JUNCTION     0.83     1.81     8.32     0  00:48        1.81
  YS02001898           JUNCTION     0.60     1.77     8.51     0  00:48        1.62
  YS02001901           JUNCTION     0.70     1.86     8.47     0  00:48        1.74
  YS02001904           JUNCTION     0.69     1.75     8.38     0  00:48        1.67
  YS02001907           JUNCTION     1.00     1.96     8.25     0  00:48        1.96
  YS02001910           JUNCTION     0.81     2.00     8.51     0  00:51        1.96
  YS02001915           JUNCTION     0.64     2.00     8.72     0  00:48        1.91
  YS02001918           JUNCTION     0.39     1.81     8.88     0  00:51        1.81
  YS02001920           JUNCTION     0.48     2.14     9.15     0  00:51        2.14
  YS02001923           JUNCTION     0.32     2.03     9.29     0  00:51        2.03
  YS02001926           JUNCTION     0.34     1.90     9.35     0  00:50        1.90
  YS02001929           JUNCTION     0.22     1.78     9.47     0  00:51        1.62
  YS02001932           JUNCTION     0.13     1.77     9.57     0  00:51        1.17
  YS02001935           JUNCTION     0.09     1.75     9.68     0  00:51        1.07
  YS02001757           JUNCTION     0.27     0.77     7.03     0  00:53        0.77
  YS02001895           JUNCTION     0.60     1.68     8.42     0  00:48        1.60
  YS02005679           JUNCTION     0.00     0.00    10.24     0  00:00        0.00
  YS02005559           JUNCTION     0.09     0.18    10.12     0  00:53        0.18
  YS02005651           JUNCTION     0.06     0.17    10.94     0  00:52        0.17
  YS02005670           JUNCTION     0.07     0.19    10.64     0  00:52        0.19
  YS02005547           JUNCTION     0.05     0.14    10.67     0  00:51        0.13
  YS02005549           JUNCTION     0.07     0.20    11.11     0  00:51        0.20
  YS02005550           JUNCTION     0.09     0.22    10.85     0  00:52        0.22
  YS02005551           JUNCTION     0.05     0.13    10.50     0  00:52        0.13
  YS02005553           JUNCTION     0.11     0.25    10.61     0  00:52        0.24
  YS02005554           JUNCTION     0.06     0.12    10.36     0  00:53        0.12
  YS02005556           JUNCTION     0.11     0.24    10.29     0  00:52        0.23
  YS02005557           JUNCTION     0.06     0.12    10.09     0  00:52        0.12
  YS02005560           JUNCTION     0.07     0.13     9.88     0  00:53        0.13
  YS02005562           JUNCTION     0.11     0.21     9.95     0  00:53        0.21
  YS02005563           JUNCTION     0.06     0.12     9.78     0  00:53        0.12
  YS02005565           JUNCTION     0.09     0.18     9.89     0  00:53        0.18
  YS02005566           JUNCTION     0.08     0.15     9.54     0  00:53        0.15
  YS02005568           JUNCTION     0.11     0.23     9.73     0  00:53        0.23
  YS02005569           JUNCTION     0.09     0.17     9.50     0  00:53        0.17
  YS02005598           JUNCTION     0.21     1.07    10.91     0  00:48        1.07
  YS02005600           JUNCTION     0.19     1.02    10.68     0  00:48        1.02
  YS02005602           JUNCTION     0.43     2.15    10.43     0  00:49        2.15
  YS02005603           JUNCTION     0.14     1.08     9.21     0  00:49        0.58
  YS02005609           JUNCTION     0.07     0.19     9.08     0  00:52        0.19
  YS02005653           JUNCTION     0.10     0.67    11.64     0  00:50        0.52
  YS02005654           JUNCTION     0.12     0.54    11.29     0  00:50        0.45
  YS02005655           JUNCTION     0.05     0.13    10.77     0  00:52        0.13
  YS02005595           JUNCTION     0.30     1.36    11.04     0  00:47        1.36
  YS02005658           JUNCTION     0.09     0.27    11.18     0  00:52        0.27
  YS02005659           JUNCTION     0.05     0.13    10.79     0  00:52        0.13
  YS02005661           JUNCTION     0.12     0.45    11.15     0  00:52        0.44
  YS02005662           JUNCTION     0.05     0.12    10.74     0  00:52        0.12
  YS02005664           JUNCTION     0.12     0.43    11.01     0  00:50        0.41
  YS02005665           JUNCTION     0.04     0.11    10.67     0  00:52        0.11
  YS02005668           JUNCTION     0.04     0.12    10.28     0  00:52        0.12
  YS02005667           JUNCTION     0.25     0.59    10.60     0  00:51        0.59
  YS02005571           JUNCTION     0.13     0.26     9.74     0  00:52        0.26
  YS02005572           JUNCTION     0.10     0.19     9.54     0  00:53        0.19
  YS02005576           JUNCTION     0.10     0.20     9.96     0  00:53        0.20
  YS02005577           JUNCTION     0.09     0.18     9.66     0  00:53        0.18
  YS02005579           JUNCTION     0.16     0.45    10.08     0  00:53        0.45
  YS02005580           JUNCTION     0.10     0.23     9.76     0  00:53        0.23
  YS02005582           JUNCTION     0.28     0.86    10.94     0  00:50        0.86
  YS02005583           JUNCTION     0.14     0.92    10.92     0  00:50        0.41
  YS02005612           JUNCTION     0.39     1.28     9.41     0  00:52        1.28
  YS02005615           JUNCTION     0.05     0.13    11.62     0  00:51        0.13
  YS02005616           JUNCTION     0.04     0.11    10.93     0  00:51        0.11
  YS02005618           JUNCTION     0.07     0.21    11.06     0  00:51        0.20
  YS02005619           JUNCTION     0.05     0.12    10.67     0  00:51        0.12
  YS02005621           JUNCTION     0.08     0.25    11.36     0  00:51        0.25
  YS02005622           JUNCTION     0.04     0.10    11.07     0  00:51        0.10
  YS02005625           JUNCTION     0.03     0.09    11.11     0  00:51        0.09
  YS02005627           JUNCTION     0.10     0.26    11.19     0  00:51        0.26
  YS02005628           JUNCTION     0.04     0.10    11.00     0  00:51        0.10
  YS02005630           JUNCTION     0.09     0.27    11.35     0  00:52        0.27
  YS02005631           JUNCTION     0.04     0.12    10.99     0  00:52        0.12
  YS02005633           JUNCTION     0.08     0.24    11.37     0  00:52        0.24
  YS02005634           JUNCTION     0.05     0.13    10.96     0  00:52        0.13
  YS02005636           JUNCTION     0.09     0.29    11.28     0  00:52        0.28
  YS02005637           JUNCTION     0.05     0.14    10.91     0  00:51        0.14
  YS02005639           JUNCTION     0.09     0.24    10.87     0  00:52        0.24
  YS02005640           JUNCTION     0.06     0.14    10.47     0  00:52        0.14
  YS02005642           JUNCTION     0.07     0.19    11.02     0  00:52        0.19
  YS02005644           JUNCTION     0.10     0.46    11.57     0  00:52        0.46
  YS02005645           JUNCTION     0.07     0.18    10.99     0  00:52        0.18
  YS02005647           JUNCTION     0.16     0.76    11.65     0  00:52        0.75
  YS02005648           JUNCTION     0.07     0.20    10.99     0  00:52        0.20
  YS02005650           JUNCTION     0.12     0.51    11.40     0  00:52        0.51
  YS02005671           JUNCTION     0.04     0.09    10.32     0  00:52        0.09
  YS02005673           JUNCTION     0.07     0.20    10.55     0  00:52        0.20
  YS02005674           JUNCTION     0.05     0.13    10.02     0  00:52        0.13
  YS02005676           JUNCTION     0.00     0.00    10.24     0  00:00        0.00
  YS02005680           JUNCTION     0.05     0.13    10.23     0  00:52        0.13
  YS02005682           JUNCTION     0.00     0.00    10.06     0  00:00        0.00
  YS02005683           JUNCTION     0.03     0.08     9.97     0  00:52        0.08
  YS02005376           JUNCTION     0.69     1.01    11.10     0  00:34        1.01
  YS02005378           JUNCTION     1.21     1.62    11.14     0  00:51        1.61
  YS02005381           JUNCTION     1.08     1.57    11.20     0  00:34        1.57
  YS02005624           JUNCTION     0.21     0.43    11.31     0  00:51        0.43
  YS02005384           JUNCTION     0.34     0.79    10.44     0  00:34        0.53
  YS02005677           JUNCTION     0.05     0.14    10.22     0  00:52        0.14
  YSB1105              JUNCTION     0.24     0.51     9.99     0  00:52        0.51
  YSB1106              JUNCTION     0.21     1.20    11.04     0  00:51        0.68
  YSB1109              JUNCTION     0.26     1.31    11.25     0  00:51        0.95
  YSB1112              JUNCTION     0.25     1.46    11.60     0  00:51        1.11
  YSB1115              JUNCTION     0.23     1.90    12.20     0  00:51        1.15
  YSB1118              JUNCTION     0.24     1.79    12.33     0  00:51        1.37
  YSB1121              JUNCTION     0.29     1.70    12.37     0  00:51        1.70
  YSB1124              JUNCTION     0.15     1.60    12.43     0  00:51        1.59
  YSB1128              JUNCTION     0.35     1.85    12.43     0  00:47        1.85
  YSB1132              JUNCTION     0.39     1.90    12.35     0  00:47        1.90
  YSB1228              JUNCTION     0.05     0.15    10.99     0  00:51        0.15
  YSB1202              JUNCTION     0.85     1.50    12.39     0  00:44        1.46
  YSB1135              JUNCTION     0.49     2.00    12.26     0  00:47        2.00
  YSB1138              JUNCTION     0.58     1.90    12.07     0  00:47        1.90
  YSB1141              JUNCTION     0.62     2.00    11.83     0  00:47        1.90
  YSB1145              JUNCTION     0.63     2.00    11.69     0  00:47        1.84
  YSB1148              JUNCTION     0.68     2.00    11.50     0  00:47        1.89
  YSB1151              JUNCTION     0.87     2.08    11.31     0  00:47        2.00
  YSB1154              JUNCTION     1.01     2.10    11.16     0  00:47        2.10
  YSB1198              JUNCTION     0.12     1.60    12.39     0  00:48        1.13
  YSB1192              JUNCTION     0.28     1.90    12.17     0  00:48        1.65
  YSB6556              JUNCTION     0.85     1.80    10.97     0  00:47        1.80
  YSB1205              JUNCTION     1.02     1.65    12.35     0  00:44        1.65
  YSB1209              JUNCTION     0.99     1.65    12.22     0  00:44        1.65
  YSB1212              JUNCTION     0.88     1.60    12.13     0  00:44        1.60
  YSB1215              JUNCTION     0.88     1.70    12.05     0  00:44        1.69
  YSB1218              JUNCTION     0.87     1.75    11.94     0  00:50        1.75
  YSB1221              JUNCTION     0.83     1.65    11.62     0  00:44        1.58
  YSB1224              JUNCTION     0.74     1.33    11.18     0  00:51        1.33
  YSB1195              JUNCTION     0.24     1.90    12.28     0  00:48        1.54
  YSB1189              JUNCTION     0.37     1.80    11.96     0  00:47        1.76
  YSB1186              JUNCTION     0.43     1.94    11.81     0  00:48        1.71
  YSB1183              JUNCTION     0.55     2.05    11.64     0  00:48        1.85
  YSB1180              JUNCTION     0.58     1.95    11.46     0  00:48        1.81
  YSB1177              JUNCTION     0.84     2.05    11.24     0  00:48        2.00
  YSB1174              JUNCTION     0.90     1.95    11.06     0  00:49        1.95
  YSB1171              JUNCTION     1.08     1.95    10.85     0  00:47        1.95
  YS02006553           JUNCTION     1.00     2.04     8.32     0  00:49        1.98
  YS02006561           JUNCTION     0.33     1.35     8.01     0  00:49        0.91
  YS02006562           JUNCTION     0.77     1.94     8.45     0  00:49        1.77
  YS02006556           JUNCTION     0.97     2.10     8.41     0  00:49        1.96
  YS02006558           JUNCTION     1.01     2.17     8.44     0  00:49        2.01
  YS6132               JUNCTION     0.48     2.34     9.66     0  00:56        1.31
  YS6137               JUNCTION     0.23     1.44     9.24     0  00:56        0.97
  YS6189               JUNCTION     0.32     1.43     9.22     0  00:52        1.09
  YS6184               JUNCTION     0.31     1.35     9.24     0  00:52        1.26
  YS6179               JUNCTION     0.26     1.24     9.22     0  00:52        1.05
  YS6176               JUNCTION     0.18     0.84     9.04     0  00:53        0.84
  YS6171               JUNCTION     0.19     0.69     9.10     0  00:53        0.67
  YS6168               JUNCTION     0.21     0.65     9.16     0  00:54        0.65
  YS6164               JUNCTION     0.05     0.45     9.18     0  00:54        0.45
  YS6162               JUNCTION     0.10     0.55     9.21     0  00:54        0.53
  YS6187               JUNCTION     0.36     1.53     9.31     0  00:52        1.13
  YS6363               JUNCTION     0.28     1.20     8.99     0  00:53        1.06
  YS6360               JUNCTION     0.38     1.38     9.18     0  00:53        1.26
  YS6354               JUNCTION     0.35     1.76     9.91     0  00:52        1.66
  YS6351               JUNCTION     0.42     2.10    10.31     0  00:52        2.02
  YS6350               JUNCTION     0.47     2.30    10.52     0  00:52        2.25
  YS6348               JUNCTION     0.42     2.45    10.85     0  00:50        2.45
  YS6344               JUNCTION     0.25     2.27    10.86     0  00:50        2.26
  YS6375               JUNCTION     0.07     0.28     8.70     0  00:52        0.28
  YS6377               JUNCTION     0.14     0.34     8.70     0  00:52        0.34
  YS6381               JUNCTION     0.15     0.39     8.52     0  00:52        0.39
  YS6386               JUNCTION     0.17     0.46     8.44     0  00:52        0.46
  YS6390               JUNCTION     0.39     0.59     8.28     0  00:52        0.59
  YS6394               JUNCTION     0.09     0.23     8.15     0  00:53        0.23
  YS6404               JUNCTION     0.46     3.00    10.23     0  00:56        1.77
  YS6401               JUNCTION     0.15     0.40     7.61     0  00:53        0.38
  YS02004319           JUNCTION     0.26     1.18    20.80     0  00:47        1.18
  YS02004320           JUNCTION     0.00     0.00    22.64     0  01:01        0.00
  YS02004321           JUNCTION     0.00     0.00    26.80     0  00:55        0.00
  YS02004307           JUNCTION     0.13     0.52    11.05     0  00:53        0.52
  YS02004309           JUNCTION     0.63     1.55    13.07     0  00:40        1.55
  YS02004312           JUNCTION     0.40     1.48    14.91     0  00:45        1.48
  YS02004314           JUNCTION     0.30     1.28    16.99     0  00:46        1.28
  YS02004316           JUNCTION     0.30     1.36    19.13     0  00:47        1.36
  YS02001783           JUNCTION     0.52     1.55     7.69     0  00:49        1.24
  YS02001784           JUNCTION     0.51     1.29     7.36     0  00:49        1.13
  YS02001786           JUNCTION     0.42     1.03     7.06     0  00:49        0.88
  YS02001788           JUNCTION     0.31     0.62     6.60     0  00:50        0.62
  YS02001790           JUNCTION     0.36     0.72     6.36     0  00:57        0.71
  YS02001791           JUNCTION     0.22     0.44     5.91     0  00:58        0.43
  YS02001793           JUNCTION     0.11     0.29     5.12     0  00:52        0.27
  YS02003309           JUNCTION     0.43     1.21     9.77     0  00:38        1.04
  YS02003306           JUNCTION     0.52     1.16     9.60     0  00:38        1.16
  YS02003269           JUNCTION     0.12     0.17     7.76     0  00:48        0.17
  YS02003272           JUNCTION     0.31     0.97     8.70     0  00:38        0.58
  YS02003278           JUNCTION     0.59     1.22     9.13     0  00:59        1.21
  YS02003281           JUNCTION     0.63     1.39     9.47     0  00:48        1.39
  YS02003284           JUNCTION     0.71     1.40     9.41     0  00:48        1.40
  YS02003287           JUNCTION     0.67     1.27     9.34     0  00:38        1.27
  YS02003290           JUNCTION     0.54     1.11     9.40     0  01:03        1.10
  YS02003294           JUNCTION     0.68     1.24     9.42     0  00:38        1.24
  YS02003275           JUNCTION     0.44     1.02     8.93     0  00:38        0.91
  YS02003297           JUNCTION     0.66     1.22     9.43     0  00:38        1.22
  YS02003300           JUNCTION     0.61     1.15     9.42     0  00:38        1.15
  YS02003303           JUNCTION     0.59     1.14     9.46     0  00:38        1.14
  YSB1227              JUNCTION     0.01     0.09    10.99     0  00:51        0.09
  CaochengRainPumpOutfall1 OUTFALL      0.00     0.00     6.00     0  00:00        0.00
  JiankangRainPumpOutfall2 OUTFALL      0.00     0.00     6.00     0  00:00        0.00
  JiankangRainPumpOutfall1 OUTFALL      0.00     0.00     6.00     0  00:00        0.00
  CaochengRainPumpOutfall2 OUTFALL      0.00     0.00     6.00     0  00:00        0.00
  YS02005684           OUTFALL      0.03     0.08     8.48     0  00:52        0.08
  YS02005681           OUTFALL      0.05     0.13     9.35     0  00:52        0.13
  YS02005678           OUTFALL      0.05     0.14     8.67     0  00:52        0.14
  YS02005675           OUTFALL      0.05     0.13     8.67     0  00:52        0.13
  YS02005672           OUTFALL      0.04     0.09     8.43     0  00:52        0.09
  YS02005669           OUTFALL      0.04     0.11     8.83     0  00:52        0.11
  YS02005666           OUTFALL      0.04     0.11     8.79     0  00:52        0.11
  YS02005663           OUTFALL      0.05     0.12     8.85     0  00:52        0.12
  YS02005660           OUTFALL      0.05     0.13     8.95     0  00:52        0.13
  YS02005657           OUTFALL      0.00     0.00     8.74     0  00:00        0.00
  YS02005652           OUTFALL      0.06     0.17     8.79     0  00:52        0.17
  YS02005649           OUTFALL      0.07     0.20     8.90     0  00:52        0.19
  YS02005646           OUTFALL      0.07     0.18     8.18     0  00:52        0.18
  YS02005643           OUTFALL      0.07     0.19     8.75     0  00:52        0.19
  YS02005641           OUTFALL      0.05     0.14     8.84     0  00:52        0.14
  YS02005638           OUTFALL      0.05     0.14     8.80     0  00:52        0.14
  YS02005635           OUTFALL      0.05     0.13     8.79     0  00:52        0.13
  YS02005632           OUTFALL      0.04     0.11     8.67     0  00:52        0.11
  YS02005629           OUTFALL      0.04     0.10     8.58     0  00:51        0.10
  YS02005626           OUTFALL      0.03     0.09     8.61     0  00:51        0.09
  YS02005623           OUTFALL      0.04     0.10     8.58     0  00:51        0.10
  YS02005620           OUTFALL      0.05     0.12     8.92     0  00:51        0.12
  YS02005617           OUTFALL      0.04     0.11     8.95     0  00:51        0.11
  YSB1103              OUTFALL      0.24     0.60     8.60     0  00:52        0.60
  YSB1229              OUTFALL      0.05     0.15     8.95     0  00:51        0.14
  YS02005548           OUTFALL      0.05     0.14     9.13     0  00:51        0.13
  YS02005552           OUTFALL      0.05     0.13     8.75     0  00:52        0.13
  YS02005555           OUTFALL      0.06     0.12     8.85     0  00:53        0.12
  YS02005558           OUTFALL      0.06     0.12     8.82     0  00:53        0.12
  YS02005561           OUTFALL      0.07     0.13     8.81     0  00:53        0.13
  YS02005564           OUTFALL      0.06     0.12     8.60     0  00:53        0.12
  YS02005567           OUTFALL      0.08     0.15     8.69     0  00:53        0.15
  YS02005570           OUTFALL      0.09     0.17     8.89     0  00:53        0.17
  YS02005574           OUTFALL      0.10     0.19     9.03     0  00:53        0.19
  YS02005578           OUTFALL      0.09     0.18     8.96     0  00:53        0.18
  WS02005134           OUTFALL      0.00     0.00     8.74     0  00:00        0.00
  YS02005581           OUTFALL      0.10     0.23     9.02     0  00:53        0.23
  YS02005584           OUTFALL      0.13     0.30     9.26     0  00:50        0.30
  YS02005593           OUTFALL      0.23     0.28     9.00     0  01:04        0.28
  YS02005596           OUTFALL      0.14     0.30     8.84     0  00:47        0.30
  YS02005374           OUTFALL      0.12     0.30     8.54     0  00:48        0.30
  YS02005375           OUTFALL      0.12     0.30     8.69     0  00:48        0.30
  YS02005607           OUTFALL      0.12     0.30     7.53     0  00:48        0.30
  YS02005610           OUTFALL      0.07     0.19     8.80     0  00:52        0.19
  YS02005613           OUTFALL      0.13     0.30     8.58     0  00:50        0.30
  HS02003172           OUTFALL      0.15     0.42     5.87     0  00:52        0.42
  YS6395               OUTFALL      0.09     0.23     6.65     0  00:53        0.23
  YS6405               OUTFALL      0.15     0.38     3.83     0  00:53        0.36
  WSC                  OUTFALL      0.57     0.80     5.00     0  00:43        0.80
  JiankangQianchi      STORAGE      2.68     4.20     5.00     0  00:52        4.20
  CaochengTiaoxuchi    STORAGE      0.84     1.20     6.70     0  01:04        1.20
  XierchiQianchi       STORAGE      7.04     7.47     5.47     0  02:02        7.47
  
  
  *******************
  Node Inflow Summary
  *******************
  
  -------------------------------------------------------------------------------------------------
                                  Maximum  Maximum                  Lateral       Total        Flow
                                  Lateral    Total  Time of Max      Inflow      Inflow     Balance
                                   Inflow   Inflow   Occurrence      Volume      Volume       Error
  Node                 Type           LPS      LPS  days hr:min    10^6 ltr    10^6 ltr     Percent
  -------------------------------------------------------------------------------------------------
  WS02001211           JUNCTION      7.35   221.45     0  01:15       0.054        1.19       3.903
  WS02001212           JUNCTION      0.00   237.39     0  01:17           0        1.15       2.184
  WS02001213           JUNCTION      0.00   251.16     0  01:17           0        1.13       3.015
  WS02003069           JUNCTION      0.32  2520.66     0  00:54     0.00235        9.47       0.678
  WS02003072           JUNCTION      0.00  2520.54     0  00:54           0        9.41       0.603
  WS02003073           JUNCTION      1.82  3089.21     0  00:54      0.0134        12.6       0.290
  WS02003076           JUNCTION      0.00  3089.25     0  00:54           0        12.6       0.311
  WS02003060           JUNCTION     16.53  2520.04     0  00:54       0.122        9.53       0.548
  WS02003066           JUNCTION      0.00  2346.97     0  00:53           0        8.38       0.110
  WS02003059           JUNCTION      0.00   257.23     0  00:50           0        1.11       4.988
  WS02003115           JUNCTION      0.00   477.07     0  01:01           0       0.828       0.643
  WS02003116           JUNCTION      0.00   236.50     0  00:30           0       0.985       0.822
  WS02003118           JUNCTION      0.12   228.55     0  00:38    3.76e-06        0.98       1.548
  WS02003215           JUNCTION      0.18  1603.16     0  00:52    2.02e-05        2.04       1.328
  WS02003110           JUNCTION      0.18   332.17     0  00:52     0.00132       0.435       1.713
  WS02003111           JUNCTION      1.49   810.53     0  00:52      0.0107        1.17       0.611
  WS02005155           JUNCTION      0.38   331.97     0  00:52      0.0028       0.434       2.285
  WS02005154           JUNCTION    331.54   331.54     0  00:52       0.431       0.432       1.356
  WS02005193           JUNCTION      0.00   110.02     0  00:33           0      0.0155     131.088
  WS02005196           JUNCTION      0.00    61.84     0  00:33           0     0.00589     582.585
  WS02003067           JUNCTION      0.00  1869.35     0  00:53           0        6.68       0.205
  WS02004401           JUNCTION      0.00  1111.03     0  01:25           0         5.6       0.558
  WS02004402           JUNCTION      0.00  1111.16     0  01:25           0        5.58       0.505
  WS02004403           JUNCTION      0.00  1111.09     0  01:26           0        5.55       0.435
  WS02004404           JUNCTION      0.16  1111.63     0  01:26     0.00119        5.53       0.298
  WS02004406           JUNCTION      0.00  1111.69     0  01:26           0         5.5       0.746
  WS02004409           JUNCTION      0.00  1837.06     0  00:51           0        7.43       0.456
  WS02004410           JUNCTION      0.00  1869.27     0  00:53           0        7.45       0.469
  WS02004411           JUNCTION      0.00  1869.36     0  00:53           0        6.79       0.498
  WS02004412           JUNCTION      0.00  1869.40     0  00:53           0        6.75       0.498
  WS02004413           JUNCTION      0.00  1869.45     0  00:53           0        6.72       0.648
  WS02004405           JUNCTION      0.16  1112.27     0  01:26    0.000369        5.52       0.441
  WS02006109           JUNCTION      1.89  1308.01     0  00:00      0.0096        6.19       0.359
  WS02006110           JUNCTION      0.18  1110.76     0  01:26    4.33e-05         5.7      -0.344
  WS02006111           JUNCTION      0.00  1176.04     0  00:00           0         5.7      -0.327
  WS02006112           JUNCTION      0.48  2307.30     0  00:00     2.6e-05        5.71       0.309
  WS02006113           JUNCTION      0.00  1110.72     0  01:26           0        5.68      -0.421
  WS02006115           JUNCTION      0.00  2155.86     0  00:00           0        5.65       0.580
  WS02006116           JUNCTION      0.26  1111.04     0  01:25    0.000253        5.62       0.467
  WS02006230           JUNCTION     10.44  1028.13     0  00:50      0.0756        2.86       0.566
  WS02006231           JUNCTION      0.47   453.26     0  01:05     0.00105        1.78       0.934
  WS02006232           JUNCTION      0.06   453.39     0  01:10     1.7e-05         1.8       0.996
  WS02006234           JUNCTION      0.11   453.23     0  01:10     3.2e-06        1.81       0.679
  WS02006235           JUNCTION      0.27   414.95     0  00:50    0.000423        1.89       0.577
  WS02006238           JUNCTION      0.00   415.25     0  01:19           0        1.79       0.424
  WS02006240           JUNCTION      0.00   414.86     0  00:50           0        1.81       0.909
  WS02006242           JUNCTION      0.14   414.93     0  00:50     8.4e-06        1.83       1.078
  WS02006243           JUNCTION      0.51   277.97     0  01:04    0.000907        1.42       1.147
  WS02006245           JUNCTION      0.00   278.02     0  01:37           0        1.43       0.940
  WS02006247           JUNCTION      0.00   286.64     0  00:30           0        1.44       0.830
  WS02006248           JUNCTION      0.97   344.95     0  00:42    0.000333        1.73       0.638
  WS02006249           JUNCTION      0.08  1365.65     0  00:52    2.29e-06        4.75       0.352
  WS02006239           JUNCTION      0.00   415.01     0  00:50           0         1.8       0.707
  WS02006251           JUNCTION      0.08  1649.44     0  00:52    0.000566        4.89       0.351
  WS02006252           JUNCTION      0.00   621.62     0  00:55           0        1.96      -0.017
  WS02006253           JUNCTION     44.99  1649.11     0  00:52      0.0578        3.44       0.553
  WS02006256           JUNCTION      0.00   300.00     0  00:37           0        1.52       0.046
  WS02004138           JUNCTION      0.00   190.00     0  00:29           0        1.17       0.255
  WS02004139           JUNCTION      0.32   191.55     0  00:50     0.00236        1.17       3.232
  WS02004407           JUNCTION      0.00  1837.25     0  00:51           0        7.48       0.336
  WS02006228           JUNCTION      1.03  1289.64     0  00:51     0.00058        6.17       0.243
  WS02006229           JUNCTION      0.72  2308.05     0  00:50    0.000556        8.66       0.238
  WS02006280           JUNCTION      0.22  2307.44     0  00:51    0.000237        8.33       0.028
  WS02006284           JUNCTION      0.12  2307.31     0  00:51    0.000706        8.34       0.135
  WS02006287           JUNCTION      0.13  2307.38     0  00:50    3.56e-05        8.35       0.099
  WS02003091           JUNCTION      0.37  1194.64     0  00:00    0.000682        3.34      -1.219
  WS02003203           JUNCTION      0.33  2264.56     0  00:00    0.000137        4.88       0.224
  WS6145               JUNCTION      0.12   235.10     0  00:51    0.000113        0.09       0.350
  WS6147               JUNCTION      0.00   235.53     0  00:51           0      0.0791       0.221
  WS6150               JUNCTION      0.05   235.89     0  00:51    0.000365      0.0682       0.470
  WS6152               JUNCTION      0.58   237.80     0  00:51     0.00424      0.0574       0.759
  WS6155               JUNCTION      0.10   239.97     0  00:51    4.46e-05      0.0424       0.287
  WS6156               JUNCTION      0.74   237.45     0  00:52     0.00383      0.0312       0.353
  WS6136               JUNCTION      0.21   749.97     0  00:50    4.07e-05        1.16       0.040
  WS6140               JUNCTION      0.04   233.71     0  00:51    7.86e-05        0.11       0.113
  WS6142               JUNCTION      0.04   234.55     0  00:51    7.06e-05       0.101       0.228
  WS6325               JUNCTION      0.13   156.45     0  00:50    0.000139      0.0877       1.194
  WS6327               JUNCTION      0.05   156.47     0  00:50     0.00036      0.0783       0.143
  WS6329               JUNCTION      0.44   156.58     0  00:50     0.00177      0.0676       0.200
  WS6332               JUNCTION      0.30   156.79     0  00:50    0.000664      0.0548       0.185
  WS6158               JUNCTION      1.80   256.46     0  00:52      0.0119      0.0156      -0.733
  WS6335               JUNCTION      0.63   157.33     0  00:50     0.00346      0.0429       0.372
  WS6338               JUNCTION      0.27   157.52     0  00:50    0.000915      0.0281       0.219
  WS6340               JUNCTION      0.11   160.33     0  00:51    0.000109      0.0155       0.039
  WS6342               JUNCTION      0.60   156.16     0  00:51     0.00311     0.00631      -0.779
  WS6135               JUNCTION      0.00   746.27     0  00:51           0        1.27       0.445
  WS6396               JUNCTION      0.00   547.38     0  00:55           0        1.17       0.179
  WS6399               JUNCTION      0.00   547.34     0  00:55           0        1.17       0.064
  WS02003082           JUNCTION      0.41   590.24     0  00:46     0.00135         3.3       0.554
  WS02003077           JUNCTION      0.60   590.87     0  00:46     0.00441        3.25       0.200
  WS02003080           JUNCTION      0.00   590.24     0  00:46           0        3.26       0.469
  WS02003083           JUNCTION      0.00   590.18     0  00:46           0         3.3       0.269
  WS02003084           JUNCTION      0.04   590.24     0  00:45    0.000324        3.31       0.287
  WS02003085           JUNCTION      0.00   590.13     0  00:46           0        3.32       0.184
  WS02003086           JUNCTION      0.49   664.19     0  00:01     0.00361        3.34       0.454
  WS02003087           JUNCTION      0.00  1079.03     0  00:00           0        3.34       0.318
  WS02003088           JUNCTION      0.55  2146.84     0  00:00     0.00147        3.38       0.447
  WS02003089           JUNCTION      0.18  1590.77     0  00:00    0.000235        3.36      -0.305
  WS02003090           JUNCTION      0.31  1148.82     0  00:00    0.000365        3.34      -0.771
  WS02003081           JUNCTION      0.00   590.28     0  00:46           0        3.28       0.436
  WS02003122           JUNCTION      0.00   228.74     0  00:38           0       0.963       1.543
  WS02003187           JUNCTION    416.53   593.53     0  00:52       0.586        1.51       0.879
  WS02003188           JUNCTION      0.44   403.46     0  00:57    0.000877         1.4       0.882
  WS02003190           JUNCTION      0.41   608.61     0  00:59    7.59e-05        2.08       0.655
  WS02003193           JUNCTION    721.10   984.65     0  00:52        1.01        1.95       0.912
  WS02003195           JUNCTION      0.09   318.55     0  00:01    0.000328        1.05       1.461
[...]
  WS02003201WS02003202        1.61      1.63      1.61      0.72         0.01
  WS02003200WS02003201        1.57      1.57      1.62      0.01         0.01
  WS02003198WS02003200        1.55      1.57      1.59      0.02         0.01
  WS02003196WS02003198        1.58      1.58      1.58      1.09         0.90
  WS02003195WS02003196        1.57      1.57      1.57      1.00         0.86
  WS02003193WS02003195        1.57      1.57      1.57      0.19         0.19
  WS02003188WS02003190        1.56      1.56      1.58      0.48         0.48
  WS02003187WS02003188        1.56      1.56      1.56      0.84         0.85
  WS02003202WS02003203        1.62      1.63      1.64      0.72         0.01
  WS02003190WS02003193        1.56      1.56      1.57      0.01         0.01
  WS02005155WS02003110        1.49      1.49      1.49      0.11         0.13
  WS02003203WS02003091        1.63      1.64      1.64      1.56         1.55
  WS02003091WS02003090        1.66      1.66      1.71      0.01         0.01
  WS02003090WS02003089        1.68      1.68      1.71      1.77         0.01
  WS02003089WS02003088        1.68      1.69      1.70      1.59         1.59
  WS02003088WS02003087        1.70      1.72      1.70      1.77         1.70
  WS02003087WS02003086        1.64      1.64      1.72      1.69         0.01
  WS02003086WS02003085        1.63      1.63      1.68      1.75         0.01
  WS02003085WS02003084        1.64      1.65      1.65      1.66         1.63
  WS02003084WS02003083        1.64      1.65      1.64      1.85         1.63
  WS02003083WS02003082        1.62      1.62      1.66      1.74         0.01
  WS02003082WS02003081        1.61      1.62      1.61      1.74         1.61
  WS02003081WS02003080        1.61      1.61      1.61      1.62         1.61
  WS02003080WS02003077        0.44      0.44      1.61      1.62         0.01
  WS02003073WS02003076        0.53      0.53      1.30      0.14         0.01
  HS02004901HS02004770        0.56      0.56      0.57      0.01         0.01
  HS02004876HS02004881        0.57      0.59      0.57      1.54         0.57
  HS02004870HS02004876        0.51      0.51      0.59      0.01         0.01
  HS02004049HS02004052        0.07      0.07      0.10      0.01         0.01
  HS02004048HS02004049        0.17      0.25      0.17      0.30         0.17
  HS02004046HS02004048        0.10      0.10      0.25      0.01         0.01
  HS02004043HS02004046        0.07      0.07      0.12      0.01         0.01
  HS02004041HS02004043        0.01      0.01      0.07      0.01         0.01
  HS02004028HS02004027        0.01      0.09      0.01      0.11         0.01
  HS02003143HS02003065        0.46      0.46      0.62      0.01         0.01
  HS02004842HS02004848        0.44      0.44      0.63      0.01         0.01
  HS02004837HS02004842        0.47      0.47      0.63      0.01         0.01
  HS02004830HS02004837        0.47      0.47      0.52      0.01         0.01
  HS02004824HS02004830        0.52      0.52      0.56      0.01         0.01
  HS02004817HS02004824        0.56      0.56      1.38      0.01         0.01
  HS02004770HS02004777        0.56      0.56      0.57      0.01         0.01
  HS02004799HS02004480        0.71      0.71      0.78      0.79         0.01
  HS02004792HS02004799        0.66      0.66      0.78      0.01         0.01
  HS02004788HS02004792        0.51      0.51      0.66      0.01         0.01
  HS02004785HS02004788        0.51      0.53      0.51      1.36         0.46
  HS02004777HS02004785        0.53      0.53      0.57      0.01         0.01
  HS02004480HS02004478        0.66      0.71      0.66      1.63         0.66
  HS02004479HS02004480        0.72      0.72      0.75      0.01         0.01
  HS02003013HS02003010        0.24      0.24      0.28      0.14         0.13
  HS02003010HS02003007        0.23      0.23      0.24      0.27         0.23
  HS02003007HS02003004        0.24      0.24      0.31      0.11         0.11
  HS02003004HS02003001        0.01      0.31      0.01      0.78         0.01
  HS02003065HS02003056        0.61      0.61      0.74      0.01         0.01
  HS02003042HS02003053        0.19      0.19      0.58      0.01         0.01
  HS02003028HS02003021        0.13      0.13      0.19      0.01         0.01
  HS02003021HS02003018        0.21      0.21      0.23      0.01         0.01
  HS02003018HS02003017        0.23      0.23      0.24      0.04         0.05
  HS02003017HS02003013        0.24      0.24      0.24      0.18         0.17
  HS02004862HS02004870        0.49      0.49      0.51      0.22         0.21
  HS02004848HS02004852        0.44      0.44      0.47      0.02         0.01
  HS02004856HS02004862        0.44      0.45      0.49      0.01         0.01
  HS02004852HS02004856        0.47      0.47      0.49      0.02         0.01
  HS02004024HS02004022        0.01      0.01      0.13      0.01         0.01
  HS02004022HS02004021        0.13      0.13      0.21      0.01         0.01
  HS02004021HS02004019        0.21      0.21      0.33      0.15         0.16
  HS02004019HS02003162        0.01      0.33      0.01      0.36         0.01
  HS02004052HS02004053        0.09      0.10      0.09      0.12         0.09
  HS02003122HS02003125        1.40      1.40      1.40      0.09         0.11
  HS02003119HS02003122        1.39      1.39      1.41      0.01         0.01
  HS02003116HS02003119        0.87      0.87      1.37      0.01         0.01
  HS02003111HS02003116        0.01      0.01      0.92      0.01         0.01
  HS02004018HS02004019        0.20      0.20      0.33      0.01         0.01
  HS02003056HS02003136        0.63      0.63      1.40      0.01         0.01
  HS02004017HS02004018        0.19      0.19      0.20      0.01         0.01
  HS02004013HS02004017        0.01      0.01      0.19      0.02         0.01
  HS02004802HS02004478        0.67      0.67      0.72      0.12         0.01
  HS02004478WS02006287        0.54      0.54      0.71      0.01         0.01
  HS02003148HS02003145        0.01      0.01      0.07      0.01         0.01
  HS02003145HS02003143        0.07      0.07      0.43      0.06         0.05
  HS02003136WS02003203        1.44      1.44      1.56      0.01         0.01
  HS02003108HS02003111        0.08      0.08      0.26      0.01         0.01
  HS02003100HS02003108        0.03      0.03      0.08      0.01         0.01
  HS02003088HS02003100        0.01      0.01      0.03      0.01         0.01
  HS02004817HS02004807        0.70      0.70      1.38      0.01         0.01
  HS02004807HS02004802        0.70      0.70      0.72      0.25         0.25
  HS02003053HS02003056        0.58      0.58      0.74      0.01         0.01
  HS02003039HS02003042        0.24      0.25      0.28      0.14         0.03
  HS02003036HS02003039        0.09      0.09      0.14      0.01         0.01
  YS02001759YS02001757        0.01      0.01      0.01      0.08         0.01
  YS02001762YS02001759        0.01      0.01      0.01      0.06         0.01
  YS02001770YS02001767        0.01      0.01      0.01      0.46         0.01
  YS02001767YS02001765        0.01      0.01      0.01      0.09         0.01
  YS02006561YS02001783        0.30      0.30      0.47      0.01         0.01
  YS02001783YS02001784        0.45      0.47      0.45      0.60         0.45
  YS02001784YS02001785        0.36      0.45      0.36      0.83         0.36
  YS02001790YS02001791        0.01      0.01      0.01      0.44         0.01
  YS02001910YS02001907        0.49      0.49      0.66      0.01         0.01
  YS02001786YS02001788        0.01      0.36      0.01      0.69         0.01
  YS02001915YS02001910        0.42      0.42      0.49      0.01         0.01
  YS02001918YS02001915        0.34      0.34      0.42      0.01         0.01
  YS02001923YS02001920        0.28      0.28      0.36      0.01         0.01
  YS02001926YS02001923        0.04      0.04      0.05      0.01         0.01
  YS02001929YS02001926        0.02      0.02      0.05      0.01         0.01
  YS02001932YS02001929        0.01      0.01      0.02      0.01         0.01
  YS02001935YS02001932        0.01      0.01      0.01      0.01         0.01
  YS02001920YS02001918        0.34      0.34      0.36      0.01         0.01
  YS02003290YS02003287        0.97      0.97      1.24      0.01         0.01
  YS02003294YS02003290        0.99      0.99      1.29      0.01         0.01
  YS02003297YS02003294        1.23      1.23      1.25      0.03         0.19
  YS02003275YS02003272        0.79      0.89      0.79      1.16         0.79
  YS02003300YS02003297        1.04      1.04      1.17      0.01         0.01
  YS02003303YS02003300        0.95      0.95      1.10      0.01         0.01
  YS02005582YS02005583        0.24      0.48      0.24      0.68         0.24
  YS02003272YS02003269        0.01      0.85      0.01      1.17         0.01
  YS02003278YS02003275        0.94      1.30      0.94      1.68         0.94
  YS02003281YS02003278        1.12      1.12      1.26      0.93         0.93
  YS02003284YS02003281        1.12      1.12      1.26      0.55         0.20
  YS02003287YS02003284        1.20      1.20      1.32      0.01         0.02
  YS02003306YS02003303        0.91      0.91      1.03      0.24         0.24
  YS02003309YS02003306        0.82      0.82      0.91      0.01         0.01
  YS02005600YS02005375        0.18      0.18      0.19      0.19         0.18
  YS02005384YS02005593        0.01      1.13      0.01      1.18         0.01
  YS02005595YS02005596        0.27      0.29      0.28      0.31         0.27
  YS02005612YS02005613        0.08      0.08      0.94      0.29         0.01
  YS02005553YS02005554        0.01      0.01      0.01      0.06         0.01
  YS02005556YS02005557        0.01      0.01      0.01      0.07         0.01
  YS02005562YS02005563        0.01      0.01      0.01      0.01         0.01
  YS02005571YS02005572        0.01      0.01      0.01      0.18         0.01
  YS02005579YS02005580        0.01      0.23      0.01      0.41         0.01
  YS02005583YS02005584        0.24      0.24      0.25      0.25         0.24
  YS02006553YS02006556        0.58      0.58      0.68      0.01         0.01
  YS02006556YS02006558        0.62      0.62      0.69      0.01         0.01
  YSB6556YSB1171              0.81      0.81      1.54      0.01         0.01
  YSB1202YSB1205              1.26      1.26      1.32      0.01         0.01
  YSB1205YSB1209              1.32      1.32      1.32      1.08         1.02
  YSB1209YSB1212              1.28      1.32      1.28      1.41         1.28
  YSB1212YSB1215              1.28      1.28      1.30      0.74         0.74
  YSB1215YSB1218              1.30      1.30      1.30      0.84         0.83
  YSB1218YSB1221              1.26      1.26      1.30      1.02         1.02
  YSB1221YSB1224              1.30      1.30      1.31      1.25         1.25
  YSB1224YSB1105              0.77      1.34      0.77      1.41         0.77
  YSB1189YSB1186              0.46      0.46      0.56      0.06         0.06
  YS02001907YS02006553        0.84      0.84      0.91      0.01         0.01
  YS02006562YS02006558        0.47      0.47      0.69      0.01         0.01
  YS02006558YS02006561        0.38      0.56      0.38      0.79         0.38
  YS6184YS6187                0.07      0.07      0.08      0.01         0.01
  YS6360YS6363                0.04      0.10      0.04      0.57         0.04
  YS6354YS6360                0.14      0.14      0.15      0.15         0.13
  YS6351YS6354                0.14      0.16      0.14      0.33         0.14
  YS6350YS6351                0.16      0.19      0.16      0.59         0.16
  YS6348YS6350                0.17      0.17      0.19      0.16         0.15
  YS6344YS6348                0.17      0.17      0.23      0.01         0.01
  YS6363YS6132                0.04      0.04      0.19      0.01         0.01
  YS6137YS6132                0.11      0.11      0.28      0.01         0.01
  YS6189YS6137                0.11      0.11      0.14      1.18         0.01
  YS6187YS6189                0.06      0.06      0.08      0.22         0.01
  YS6179YS6184                0.04      0.04      0.07      0.01         0.01
  YS6176YS6179                0.01      0.01      0.04      0.01         0.01
  YS6171YS6176                0.01      0.01      0.04      0.01         0.01
  YS6132YS6404                0.01      0.09      0.01      0.22         0.01
  YSB1106YSB1105              0.01      0.07      0.01      0.12         0.01
  YSB1109YSB1106              0.07      0.13      0.07      0.25         0.07
  YSB1112YSB1109              0.13      0.14      0.13      0.16         0.13
  YSB1115YSB1112              0.12      0.12      0.14      0.07         0.07
  YSB1118YSB1115              0.14      0.15      0.14      0.17         0.14
  YSB1121YSB1118              0.15      0.18      0.15      0.26         0.15
  YSB1124YSB1121              0.14      0.14      0.18      0.01         0.01
  YSB1105YSB1103              0.01      0.01      0.04      0.04         0.01
  YS02001882YS02001884        0.42      0.42      0.43      0.01         0.01
  YS02001884YS02001887        0.45      0.45      0.46      0.01         0.01
  YS02001890YS02001895        0.41      0.41      0.50      0.01         0.01
  YS02001895YS02001898        0.41      0.41      0.41      0.01         0.01
  YS02001898YS02001901        0.42      0.42      0.45      0.01         0.01
  YS02001901YS02001904        0.44      0.44      0.45      0.01         0.01
  YS02001904YS02001907        0.44      0.44      0.68      0.01         0.01
  YS02001887YS02001890        0.47      0.47      0.48      0.09         0.01
  YS02004309YS02004307        0.06      0.73      0.06      0.71         0.06
  YS02004319YS02004316        0.27      0.27      0.28      0.01         0.01
  YS02005376YS02005378        1.50      1.50      1.80      0.01         0.01
  YS02005378YS02005381        1.76      1.76      1.80      0.44         0.01
  YS02005381YS02005384        1.13      1.13      1.76      1.78         0.01
  YS02005598YS02005374        0.19      0.19      0.21      0.21         0.19
  YS02005602YS02005603        0.16      0.43      0.16      0.55         0.16
  YS02005603YS02005607        0.16      0.16      0.17      0.17         0.16
  YS02005621YS02005622        0.01      0.01      0.01      0.02         0.01
  YS02005624YS02005625        0.01      0.01      0.20      0.01         0.01
  YS02005630YS02005631        0.01      0.01      0.01      0.04         0.01
  YS02005636YS02005637        0.01      0.01      0.01      0.07         0.01
  YS02005627YS02005628        0.01      0.01      0.01      0.21         0.01
  YS02005644YS02005645        0.01      0.06      0.01      0.09         0.01
  YS02005650YS02005651        0.01      0.09      0.01      0.18         0.01
  YS02005653YS02005654        0.07      0.07      0.08      0.07         0.06
  YS02005654YS02005655        0.01      0.08      0.01      0.16         0.01
  YS02005658YS02005659        0.01      0.01      0.01      0.05         0.01
  YS02005661YS02005662        0.01      0.07      0.01      0.18         0.01
  YS02005664YS02005665        0.01      0.08      0.01      0.41         0.01
  YS02005667YS02005668        0.01      0.01      0.39      0.07         0.01
  YS02005647YS02005648        0.01      0.16      0.01      0.28         0.01
  YS02004312YS02004309        0.47      0.47      0.73      0.01         0.01
  YS02004314YS02004312        0.30      0.30      0.47      0.01         0.01
  YS02004316YS02004314        0.28      0.28      0.30      0.23         0.23
  YS02004320YS02004319        0.01      0.01      0.20      0.01         0.01
  YS6404YS6401                0.01      0.01      0.01      0.55         0.01
  YSB1132YSB1135              0.46      0.46      0.52      0.01         0.01
  YSB1135YSB1138              0.52      0.52      0.55      0.01         0.01
  YSB1138YSB1141              0.55      0.55      0.62      0.32         0.32
  YSB1141YSB1145              0.60      0.60      0.63      0.31         0.29
  YSB1148YSB1151              0.70      0.70      0.90      0.01         0.01
  YSB1151YSB1154              0.78      0.78      1.05      0.01         0.01
  YSB1154YSB6556              0.81      0.81      1.05      0.32         0.01
  YSB1128YSB1132              0.44      0.44      0.46      0.01         0.01
  YSB1145YSB1148              0.63      0.63      0.70      0.01         0.01
  YSB1198YSB1195              0.16      0.16      0.41      0.01         0.01
  YSB1195YSB1192              0.41      0.41      0.43      0.01         0.01
  YSB1192YSB1189              0.43      0.43      0.46      0.01         0.01
  YSB1186YSB1183              0.51      0.51      0.61      0.01         0.01
  YSB1183YSB1180              0.61      0.61      0.65      0.10         0.10
  YSB1180YSB1177              0.65      0.65      0.94      0.01         0.01
  YSB1177YSB1174              0.94      0.94      1.16      0.11         0.11
  YSB1174YSB1171              0.89      0.89      1.37      0.06         0.07
  YSB1171HS02004479           0.69      0.69      1.02      0.01         0.01
  YS02004307HS02004052        0.01      0.01      0.10      0.01         0.01
  HS02004881HS02006253        0.57      0.57      1.42      0.01         0.01
  WS0200404049WS6136          0.08      0.08      0.16      0.01         0.01
  HS02003125WS02003215        1.40      1.40      1.43      0.01         0.01
  YS02001793JiankangQianchi        0.01      0.01      2.03      0.01         0.01
  YS02001757CaochengTiaoxuchi        0.01      0.01      0.46      0.01         0.01
  WS02004041WS6409            0.86      0.86      0.94      0.94         0.86
  WSF200WS02003060            0.15      0.15      0.37      0.01         0.01
  HS02004053WS02004407        0.09      0.09      0.90      0.01         0.01
  HS02003036HS02003028        0.09      0.09      0.18      0.01         0.01
  
  
  ***************
  Pumping Summary
  ***************
  
  ---------------------------------------------------------------------------------------------------------
                                                  Min       Avg       Max     Total     Power    % Time Off
                        Percent   Number of      Flow      Flow      Flow    Volume     Usage    Pump Curve
  Pump                 Utilized   Start-Ups       LPS       LPS       LPS  10^6 ltr     Kw-hr    Low   High
  ---------------------------------------------------------------------------------------------------------
  CaochengSewagePump1     80.47           1      0.00    200.00    200.00     1.183      9.11    0.0    0.0
  CaochengSewagePump2     45.00           1      0.00    200.00    200.00     0.662      5.44    0.0    0.0
  CaochengRainPump1       37.24           1      0.00    683.00    683.00     1.870      2.03    0.0   60.9
  CaochengRainPump2        0.00           0      0.00      0.00      0.00     0.000      0.00    0.0    0.0
  JiankangSewagePump      68.69           1      0.00    300.00    300.00     1.515     24.78    0.0    0.0
  JiankangRainPump1       26.74           4      0.00   1000.00   1000.00     1.966     13.06    0.0    0.0
  JiankangRainPump2        0.00           0      0.00      0.00      0.00     0.000      0.00    0.0    0.0
  XierchiSewagePump1      91.83           1      0.00     95.00     95.00     0.641      3.96    0.0    0.0
  XierchiSewagePump2      76.31           1      0.00     95.00     95.00     0.533      3.12    0.0    0.0
  XierchiSewagePump3       0.00           0      0.00      0.00      0.00     0.000      0.00    0.0    0.0
  XierchiSewagePump4       0.00           0      0.00      0.00      0.00     0.000      0.00    0.0    0.0
  

  Analysis begun on:  Mon Oct 17 23:36:08 2022
  Analysis ended on:  Tue Oct 18 00:10:35 2022
  Total elapsed time: 00:34:27