
  EPA STORM WATER MANAGEMENT MODEL - VERSION 5.1 (Build 5.3.0.dev0)
  --------------------------------------------------------------

  WARNING 04: minimum elevation drop used for Conduit WS02004404WS02004405
  WARNING 03: negative offset ignored for Link YS02001904YS02001907
  
  *********************************************************
  NOTE: The summary statistics displayed in this report are
  based on results found at every computational time step,  
  not just on results from each reporting time step.
  *********************************************************
  
  ****************
  Analysis Options
  ****************
  Flow Units ............... LPS
  Process Models:
    Rainfall/Runoff ........ YES
    RDII ................... NO
    Snowmelt ............... NO
    Groundwater ............ NO
    Flow Routing ........... YES
    Ponding Allowed ........ NO
    Water Quality .......... NO
  Infiltration Method ...... HORTON
  Flow Routing Method ...... DYNWAVE
  Surcharge Method ......... EXTRAN
  Starting Date ............ 03/31/2017 00:00:00
  Ending Date .............. 03/31/2017 03:00:00
  Antecedent Dry Days ...... 8.0
  Report Time Step ......... 00:00:30
  Wet Time Step ............ 00:01:00
  Dry Time Step ............ 00:01:00
  Routing Time Step ........ 30.00 sec
  Variable Time Step ....... YES
  Maximum Trials ........... 8
  Number of Threads ........ 6
  Head Tolerance ........... 0.001500 m
  
  
  **************************        Volume         Depth
  Runoff Quantity Continuity     hectare-m            mm
  **************************     ---------       -------
  Initial LID Storage ......         0.094         0.800
  Total Precipitation ......         8.786        74.557
  Evaporation Loss .........         0.000         0.000
  Infiltration Loss ........         0.292         2.478
  Surface Runoff ...........         6.943        58.916
  Final Storage ............         1.656        14.049
  Continuity Error (%) .....        -0.115
  
  
  **************************        Volume        Volume
  Flow Routing Continuity        hectare-m      10^6 ltr
  **************************     ---------     ---------
  Dry Weather Inflow .......         0.171         1.705
  Wet Weather Inflow .......         6.935        69.346
  Groundwater Inflow .......         0.000         0.000
  RDII Inflow ..............         0.000         0.000
  External Inflow ..........         0.032         0.321
  External Outflow .........         4.057        40.571
  Flooding Loss ............         2.883        28.834
  Evaporation Loss .........         0.000         0.000
  Exfiltration Loss ........         0.000         0.000
  Initial Stored Volume ....         0.303         3.031
  Final Stored Volume ......         0.531         5.311
  Continuity Error (%) .....        -0.421
  
  
  *************************
  Highest Continuity Errors
  *************************
  Node WS02005193 (57.09%)
  Node YS02001884 (21.65%)
  Node YS02001774 (10.81%)
  Node YS02004320 (8.33%)
  Node HS02003116 (6.67%)
  
  
  ***************************
  Time-Step Critical Elements
  ***************************
  Link YS02005655YS02005657 (34.25%)
  Link WS02006252WS02006251 (26.01%)
  Link WS02004041WS6409 (23.57%)
  Link WS02006280WS02006229 (1.44%)
  Link WS02003073WS02003076 (1.42%)
  
  
  ********************************
  Highest Flow Instability Indexes
  ********************************
  Link YS02005562YS02005563 (63)
  Link WS02006238WS02006235 (61)
  Link WS02003215WS02003116 (56)
  Link WS02003200WS02003201 (55)
  Link WS02003122WS02003187 (55)
  
  
  *************************
  Routing Time Step Summary
  *************************
  Minimum Time Step           :     0.50 sec
  Average Time Step           :     0.96 sec
  Maximum Time Step           :    30.00 sec
  Percent in Steady State     :     0.00
  Average Iterations per Step :     5.85
  Percent Not Converging      :    35.00
  
  
  ***************************
  Subcatchment Runoff Summary
  ***************************
  
  ------------------------------------------------------------------------------------------------------------------------------
                            Total      Total      Total      Total     Imperv       Perv      Total       Total     Peak  Runoff
                           Precip      Runon       Evap      Infil     Runoff     Runoff     Runoff      Runoff   Runoff   Coeff
  Subcatchment                 mm         mm         mm         mm         mm         mm         mm    10^6 ltr      LPS
  ------------------------------------------------------------------------------------------------------------------------------
  sub0                      74.56       0.00       0.00       0.72      67.10       4.19      71.30        0.06    44.99   0.956
  sub1                      74.56       0.00       0.00       0.95      53.03       5.40      58.42        0.39   259.63   0.784
  sub2                      74.56       0.00       0.00       3.37      39.11      16.19      55.31        0.52   275.70   0.742
  sub3                      74.56       0.00       0.00       3.38      38.61      14.95      53.56        1.21   595.27   0.718
  sub4                      74.56       0.00       0.00       0.88      47.63       4.80      52.44        1.09   603.50   0.703
  sub5                      74.56       0.00       0.00       0.64      58.61       3.68      62.29        0.71   468.34   0.835
  sub6                      74.56       0.00       0.00       0.62      56.17       3.53      59.70        1.54   969.97   0.801
  sub7                      74.56       0.00       0.00       0.76      53.60       4.39      57.99        0.20   143.62   0.778
  sub8                      74.56       0.00       0.00       0.72      50.19       4.11      54.30        0.35   249.28   0.728
  sub9                      74.56       0.00       0.00       0.74      51.46       4.22      55.68        0.27   190.11   0.747
  sub10                     74.56       0.00       0.00       0.70      55.50       4.01      59.51        0.66   445.03   0.798
  sub11                     74.56       0.00       0.00       0.68      53.88       3.89      57.77        0.67   482.79   0.775
  sub12                     74.56       0.00       0.00       1.20      56.03       6.89      62.92        0.55   419.85   0.844
  sub13                     74.56       0.00       0.00       3.51      46.96      18.42      65.39        0.78   475.83   0.877
  sub14                     74.56       0.00       0.00       0.75      52.62       4.31      56.93        0.54   380.72   0.764
  sub15                     74.56       0.00       0.00       2.81      45.21      14.94      60.15        1.03   642.92   0.807
  sub16                     74.56       0.00       0.00       3.14      44.42      17.22      61.65        0.65   438.38   0.827
  sub17                     74.56       0.00       0.00       3.16      46.67      17.24      63.91        0.55   365.18   0.857
  sub18                     74.56       0.00       0.00       0.75      52.58       4.31      56.88        0.45   341.23   0.763
  sub19                     74.56       0.00       0.00       3.12      48.10      16.93      65.03        0.21   135.71   0.872
  sub20                     74.56       0.00       0.00       0.49      34.59       2.83      37.42        0.26   202.54   0.502
  sub21                     74.56       0.00       0.00       1.07      54.77       6.15      60.92        0.31   232.71   0.817
  sub22                     74.56       0.00       0.00       4.34      39.78      22.03      61.81        3.90  2254.44   0.829
  sub23                     74.56       0.00       0.00       3.34      39.40      17.76      57.15        2.73  1717.03   0.767
  sub24                     74.56       0.00       0.00       1.26      53.81       7.19      60.99        2.19  1621.69   0.818
  sub25                     74.56       0.00       0.00       0.72      67.22       4.20      71.42        0.92   730.20   0.958
  sub26                     74.56       0.00       0.00       2.26      50.25      12.95      63.20        0.90   726.97   0.848
  sub27                     74.56       0.00       0.00       0.76      53.15       4.35      57.51        0.83   576.78   0.771
  sub28                     74.56       0.00       0.00       0.66      52.71       3.81      56.52        0.89   613.28   0.758
  sub29                     74.56       0.00       0.00       0.69      53.90       3.90      57.80        0.93   579.15   0.775
  sub30                     74.56       0.00       0.00       0.68      54.83       3.95      58.78        1.32  1023.25   0.788
  sub31                     74.56       0.00       0.00       1.64      55.92       9.38      65.30        1.38  1072.15   0.876
  sub32                     74.56       0.00       0.00       0.70      55.67       4.02      59.69        1.19   873.97   0.801
  sub33                     74.56       0.00       0.00       1.15      53.80       6.62      60.42        1.11   854.22   0.810
  sub34                     74.56       0.00       0.00       4.86      34.07      26.48      60.55        1.35   898.55   0.812
  sub35                     74.56       0.00       0.00       0.70      56.59       4.07      60.66        0.21   186.96   0.814
  sub36                     74.56       0.00       0.00       2.01      49.98      11.51      61.49        0.53   424.43   0.825
  sub37                     74.56       0.00       0.00       3.67      40.43      20.76      61.18        0.47   356.79   0.821
  sub38                     74.56       0.00       0.00       3.33      43.59      19.00      62.59        1.19   946.68   0.839
  sub39                     74.56       0.00       0.00       0.67      54.45       3.92      58.37        0.62   516.21   0.783
  sub40                     74.56       0.00       0.00       0.66      53.59       3.86      57.45        0.67   561.20   0.771
  sub41                     74.56       0.00       0.00       1.38      50.67       7.93      58.60        1.13   898.60   0.786
  sub42                     74.56       0.00       0.00       0.73      52.21       4.27      56.48        0.57   469.31   0.758
  sub43                     74.56       0.00       0.00       3.92      44.61      21.38      65.99        0.54   362.30   0.885
  sub44                     74.56       0.00       0.00       0.62      56.82       3.56      60.38        0.68   471.28   0.810
  sub45                     74.56       0.00       0.00       1.55      52.49       8.74      61.22        1.12   784.56   0.821
  sub46                     74.56       0.00       0.00       6.13      25.28      32.43      57.71        0.40   235.29   0.774
  sub47                     74.56       0.00       0.00       0.72      57.48       4.15      61.63        0.47   346.48   0.827
  sub48                     74.56       0.00       0.00       0.74      51.93       4.25      56.18        0.43   317.20   0.754
  sub49                     74.56       0.00       0.00       0.70      55.57       4.01      59.59        0.54   384.18   0.799
  sub50                     74.56       0.00       0.00       0.67      53.54       3.86      57.41        0.40   287.79   0.770
  sub51                     74.56       0.00       0.00       0.65      52.14       3.76      55.90        0.26   200.06   0.750
  sub52                     74.56       0.00       0.00       0.64      58.41       3.66      62.07        0.67   467.21   0.833
  sub53                     74.56       0.00       0.00       0.69      55.50       4.00      59.50        0.60   442.57   0.798
  sub54                     74.56       0.00       0.00       0.61      55.91       3.51      59.42        0.35   236.00   0.797
  sub55                     74.56       0.00       0.00       0.66      52.34       3.78      56.12        0.45   308.56   0.753
  sub56                     74.56       0.00       0.00       1.75      50.61       9.38      59.98        0.85   508.78   0.805
  sub57                     74.56       0.00       0.00       3.18      48.49      16.46      64.95        0.42   248.85   0.871
  sub58                     74.56       0.00       0.00       7.53      19.44      33.26      52.70        1.95   827.01   0.707
  sub59                     74.56       0.00       0.00       7.94      16.50      30.25      46.75        1.07   404.02   0.627
  sub60                     74.56       0.00       0.00       1.00      51.03       5.73      56.75        0.75   542.82   0.761
  sub61                     74.56       0.00       0.00       1.51      51.23       8.55      59.78        1.10   792.49   0.802
  sub62                     74.56       0.00       0.00       0.67      53.14       3.84      56.98        1.56  1054.66   0.764
  sub67                     74.56       0.00       0.00       0.73      57.60       4.16      61.76        1.15   778.88   0.828
  sub68                     74.56       0.00       0.00       1.22      51.93       6.91      58.84        1.62  1118.04   0.789
  sub71                     74.56       0.00       0.00       0.64      50.13       3.62      53.75        1.41   898.88   0.721
  sub72                     74.56       0.00       0.00       0.62      55.03       3.47      58.50        0.80   467.51   0.785
  sub73                     74.56       0.00       0.00       2.03      53.67      11.65      65.32        0.06    50.66   0.876
  sub74                     74.56       0.00       0.00       2.97      44.32      16.79      61.11        0.10    75.05   0.820
  sub75                     74.56       0.00       0.00       2.76      45.22      15.70      60.92        0.13   105.61   0.817
  sub76                     74.56       0.00       0.00       1.66      52.94       9.51      62.46        0.15   119.74   0.838
  sub77                     74.56       0.00       0.00       1.53      52.53       8.83      61.36        0.10    78.01   0.823
  sub78                     74.56       0.00       0.00       1.21      56.68       6.97      63.64        0.18   133.05   0.854
  sub79                     74.56       0.00       0.00       2.40      52.90      13.45      66.35        0.17   123.74   0.890
  sub80                     74.56       0.00       0.00       3.15      44.79      17.68      62.46        0.18   136.46   0.838
  sub81                     74.56       0.00       0.00       3.64      43.34      20.09      63.42        0.19   135.70   0.851
  sub82                     74.56       0.00       0.00       3.56      42.49      19.83      62.32        0.19   135.51   0.836
  sub83                     74.56       0.00       0.00       3.62      41.41      20.24      61.65        0.21   153.30   0.827
  sub84                     74.56       0.00       0.00       3.21      41.62      17.70      59.32        0.32   224.07   0.796
  sub85                     74.56       0.00       0.00       2.25      49.67      12.63      62.30        0.28   199.80   0.836
  sub86                     74.56       0.00       0.00       2.46      48.81      13.78      62.59        0.30   219.41   0.840
  sub87                     74.56       0.00       0.00       3.61      46.88      20.05      66.93        0.20   143.68   0.898
  sub88                     74.56       0.00       0.00       3.46      47.02      19.32      66.34        0.20   147.45   0.890
  sub89                     74.56       0.00       0.00       3.01      46.96      17.04      64.00        0.17   131.66   0.858
  sub90                     74.56       0.00       0.00       2.60      49.34      14.77      64.10        0.16   121.27   0.860
  sub91                     74.56       0.00       0.00       2.63      50.05      15.07      65.12        0.12    95.07   0.873
  sub92                     74.56       0.00       0.00       3.20      50.17      18.35      68.52        0.10    85.21   0.919
  sub93                     74.56       0.00       0.00       3.20      50.19      18.38      68.57        0.12   103.97   0.920
  sub94                     74.56       0.00       0.00       3.20      50.06      18.23      68.28        0.15   117.16   0.916
  sub95                     74.56       0.00       0.00       2.99      51.55      17.13      68.68        0.10    83.88   0.921
  sub96                     74.56       0.00       0.00       2.27      56.80      13.15      69.95        0.13   112.85   0.938
  sub97                     74.56       0.00       0.00       6.29      28.49      36.03      64.52        0.15   123.71   0.865
  sub98                     74.56       0.00       0.00       7.43      20.40      40.51      60.91        0.20   120.74   0.817
  sub99                     74.56       0.00       0.00       8.15      15.27      41.59      56.86        0.20    95.15   0.763
  sub100                    74.56       0.00       0.00       8.15      15.23      39.22      54.45        0.19    81.59   0.730
  sub101                    74.56       0.00       0.00       8.15      15.23      38.97      54.20        0.18    77.53   0.727
  sub102                    74.56       0.00       0.00       7.84      17.34      35.76      53.10        0.16    66.78   0.712
  sub103                    74.56       0.00       0.00       8.05      15.89      35.67      51.56        0.24    97.74   0.692
  sub104                    74.56       0.00       0.00       8.05      15.88      35.17      51.05        0.27   105.72   0.685
  sub105                    74.56       0.00       0.00       8.36      13.74      36.46      50.21        0.29   108.09   0.673
  sub106                    74.56       0.00       0.00       8.15      15.20      37.54      52.75        0.27   109.65   0.707
  sub107                    74.56       0.00       0.00       8.36      13.79      40.22      54.02        0.38   159.82   0.725
  sub108                    74.56       0.00       0.00       8.46      13.11      43.48      56.59        0.53   249.09   0.759
  sub109                    74.56       0.00       0.00       6.43      25.41      34.09      59.49        0.85   494.16   0.798
  sub110                    74.56       0.00       0.00       1.64      52.24       9.35      61.59        1.29   970.68   0.826
  sub111                    74.56       0.00       0.00       2.42      48.08      13.61      61.69        0.53   391.32   0.827
  sub112                    74.56       0.00       0.00       1.90      50.01      10.81      60.82        0.48   364.48   0.816
  sub113                    74.56       0.00       0.00       1.14      48.92       6.55      55.47        0.38   297.53   0.744
  sub114                    74.56       0.00       0.00       1.06      49.49       6.09      55.58        0.37   286.51   0.745
  sub115                    74.56       0.00       0.00       1.02      52.03       5.85      57.88        0.43   328.22   0.776
  sub116                    74.56       0.00       0.00       4.04      42.21      21.82      64.03        0.12    78.05   0.859
  sub117                    74.56       0.00       0.00       4.06      40.87      22.22      63.09        0.29   196.47   0.846
  

  ***********************
  LID Performance Summary
  ***********************

  --------------------------------------------------------------------------------------------------------------------
                                         Total      Evap     Infil   Surface    Drain    Initial     Final  Continuity
                                        Inflow      Loss      Loss   Outflow   Outflow   Storage   Storage       Error
  Subcatchment      LID Control             mm        mm        mm        mm        mm        mm        mm           %
  --------------------------------------------------------------------------------------------------------------------
  sub1              GreenRoof            74.56      0.00      0.00      0.00      0.00      7.05     81.64       -0.04
  sub2              GreenRoof            74.56      0.00      0.00      0.00      0.00      7.05     81.64       -0.04
  sub3              GreenRoof            74.56      0.00      0.00      0.00      0.00      7.05     81.64       -0.04
  sub4              GreenRoof            74.56      0.00      0.00      0.00      0.00      7.05     81.64       -0.04
  sub5              GreenRoof            74.56      0.00      0.00      0.00      0.00      7.05     81.64       -0.04
  sub6              GreenRoof            74.56      0.00      0.00      0.00      0.00      7.05     81.64       -0.04
  sub7              GreenRoof            74.56      0.00      0.00      0.00      0.00      7.05     81.64       -0.04
  sub8              GreenRoof            74.56      0.00      0.00      0.00      0.00      7.05     81.64       -0.04
  sub9              GreenRoof            74.56      0.00      0.00      0.00      0.00      7.05     81.64       -0.04
  sub10             GreenRoof            74.56      0.00      0.00      0.00      0.00      7.05     81.64       -0.04
  sub11             GreenRoof            74.56      0.00      0.00      0.00      0.00      7.05     81.64       -0.04
  sub12             GreenRoof            74.56      0.00      0.00      0.00      0.00      7.05     81.64       -0.04
  sub14             GreenRoof            74.56      0.00      0.00      0.00      0.00      7.05     81.64       -0.04
  sub15             GreenRoof            74.56      0.00      0.00      0.00      0.00      7.05     81.64       -0.04
  sub16             GreenRoof            74.56      0.00      0.00      0.00      0.00      7.05     81.64       -0.04
  sub17             GreenRoof            74.56      0.00      0.00      0.00      0.00      7.05     81.64       -0.04
  sub18             GreenRoof            74.56      0.00      0.00      0.00      0.00      7.05     81.64       -0.04
  sub19             GreenRoof            74.56      0.00      0.00      0.00      0.00      7.05     81.64       -0.04
  sub20             GreenRoof            74.56      0.00      0.00      0.00      0.00      7.05     81.64       -0.04
  sub20             GreenRoof            74.56      0.00      0.00      0.00      0.00      7.05     81.64       -0.04
  sub21             GreenRoof            74.56      0.00      0.00      0.00      0.00      7.05     81.64       -0.04
  sub22             GreenRoof            74.56      0.00      0.00      0.00      0.00      7.05     81.64       -0.04
  sub23             GreenRoof            74.56      0.00      0.00      0.00      0.00      7.05     81.64       -0.04
  sub24             GreenRoof            74.56      0.00      0.00      0.00      0.00      7.05     81.64       -0.04
  sub26             GreenRoof            74.56      0.00      0.00      0.00      0.00      7.05     81.64       -0.04
  sub27             GreenRoof            74.56      0.00      0.00      0.00      0.00      7.05     81.64       -0.04
  sub28             GreenRoof            74.56      0.00      0.00      0.00      0.00      7.05     81.64       -0.04
  sub29             GreenRoof            74.56      0.00      0.00      0.00      0.00      7.05     81.64       -0.04
  sub30             GreenRoof            74.56      0.00      0.00      0.00      0.00      7.05     81.64       -0.04
  sub31             GreenRoof            74.56      0.00      0.00      0.00      0.00      7.05     81.64       -0.04
  sub32             GreenRoof            74.56      0.00      0.00      0.00      0.00      7.05     81.64       -0.04
  sub33             GreenRoof            74.56      0.00      0.00      0.00      0.00      7.05     81.64       -0.04
  sub34             GreenRoof            74.56      0.00      0.00      0.00      0.00      7.05     81.64       -0.04
  sub35             GreenRoof            74.56      0.00      0.00      0.00      0.00      7.05     81.64       -0.04
  sub36             GreenRoof            74.56      0.00      0.00      0.00      0.00      7.05     81.64       -0.04
  sub37             GreenRoof            74.56      0.00      0.00      0.00      0.00      7.05     81.64       -0.04
  sub38             GreenRoof            74.56      0.00      0.00      0.00      0.00      7.05     81.64       -0.04
  sub39             GreenRoof            74.56      0.00      0.00      0.00      0.00      7.05     81.64       -0.04
  sub40             GreenRoof            74.56      0.00      0.00      0.00      0.00      7.05     81.64       -0.04
  sub41             GreenRoof            74.56      0.00      0.00      0.00      0.00      7.05     81.64       -0.04
  sub42             GreenRoof            74.56      0.00      0.00      0.00      0.00      7.05     81.64       -0.04
  sub44             GreenRoof            74.56      0.00      0.00      0.00      0.00      7.05     81.64       -0.04
  sub45             GreenRoof            74.56      0.00      0.00      0.00      0.00      7.05     81.64       -0.04
  sub46             GreenRoof            74.56      0.00      0.00      0.00      0.00      7.05     81.64       -0.04
  sub47             GreenRoof            74.56      0.00      0.00      0.00      0.00      7.05     81.64       -0.04
  sub48             GreenRoof            74.56      0.00      0.00      0.00      0.00      7.05     81.64       -0.04
  sub49             GreenRoof            74.56      0.00      0.00      0.00      0.00      7.05     81.64       -0.04
  sub50             GreenRoof            74.56      0.00      0.00      0.00      0.00      7.05     81.64       -0.04
  sub51             GreenRoof            74.56      0.00      0.00      0.00      0.00      7.05     81.64       -0.04
  sub52             GreenRoof            74.56      0.00      0.00      0.00      0.00      7.05     81.64       -0.04
  sub53             GreenRoof            74.56      0.00      0.00      0.00      0.00      7.05     81.64       -0.04
  sub54             GreenRoof            74.56      0.00      0.00      0.00      0.00      7.05     81.64       -0.04
  sub55             GreenRoof            74.56      0.00      0.00      0.00      0.00      7.05     81.64       -0.04
  sub56             GreenRoof            74.56      0.00      0.00      0.00      0.00      7.05     81.64       -0.04
  sub57             GreenRoof            74.56      0.00      0.00      0.00      0.00      7.05     81.64       -0.04
  sub60             GreenRoof            74.56      0.00      0.00      0.00      0.00      7.05     81.64       -0.04
  sub61             GreenRoof            74.56      0.00      0.00      0.00      0.00      7.05     81.64       -0.04
  sub62             GreenRoof            74.56      0.00      0.00      0.00      0.00      7.05     81.64       -0.04
  sub67             GreenRoof            74.56      0.00      0.00      0.00      0.00      7.05     81.64       -0.04
  sub68             GreenRoof            74.56      0.00      0.00      0.00      0.00      7.05     81.64       -0.04
  sub71             GreenRoof            74.56      0.00      0.00      0.00      0.00      7.05     81.64       -0.04
  sub72             GreenRoof            74.56      0.00      0.00      0.00      0.00      7.05     81.64       -0.04
  sub73             GreenRoof            74.56      0.00      0.00      0.00      0.00      7.05     81.64       -0.04
  sub74             GreenRoof            74.56      0.00      0.00      0.00      0.00      7.05     81.64       -0.04
  sub75             GreenRoof            74.56      0.00      0.00      0.00      0.00      7.05     81.64       -0.04
  sub76             GreenRoof            74.56      0.00      0.00      0.00      0.00      7.05     81.64       -0.04
  sub77             GreenRoof            74.56      0.00      0.00      0.00      0.00      7.05     81.64       -0.04
  sub78             GreenRoof            74.56      0.00      0.00      0.00      0.00      7.05     81.64       -0.04
  sub79             GreenRoof            74.56      0.00      0.00      0.00      0.00      7.05     81.64       -0.04
  sub80             GreenRoof            74.56      0.00      0.00      0.00      0.00      7.05     81.64       -0.04
  sub81             GreenRoof            74.56      0.00      0.00      0.00      0.00      7.05     81.64       -0.04
  sub82             GreenRoof            74.56      0.00      0.00      0.00      0.00      7.05     81.64       -0.04
  sub83             GreenRoof            74.56      0.00      0.00      0.00      0.00      7.05     81.64       -0.04
  sub84             GreenRoof            74.56      0.00      0.00      0.00      0.00      7.05     81.64       -0.04
  sub85             GreenRoof            74.56      0.00      0.00      0.00      0.00      7.05     81.64       -0.04
  sub86             GreenRoof            74.56      0.00      0.00      0.00      0.00      7.05     81.64       -0.04
  sub88             GreenRoof            74.56      0.00      0.00      0.00      0.00      7.05     81.64       -0.04
  sub89             GreenRoof            74.56      0.00      0.00      0.00      0.00      7.05     81.64       -0.04
  sub90             GreenRoof            74.56      0.00      0.00      0.00      0.00      7.05     81.64       -0.04
  sub91             GreenRoof            74.56      0.00      0.00      0.00      0.00      7.05     81.64       -0.04
  sub109            GreenRoof            74.56      0.00      0.00      0.00      0.00      7.05     81.64       -0.04
  sub110            GreenRoof            74.56      0.00      0.00      0.00      0.00      7.05     81.64       -0.04
  sub111            GreenRoof            74.56      0.00      0.00      0.00      0.00      7.05     81.64       -0.04
  sub112            GreenRoof            74.56      0.00      0.00      0.00      0.00      7.05     81.64       -0.04
  sub113            GreenRoof            74.56      0.00      0.00      0.00      0.00      7.05     81.64       -0.04
  sub114            GreenRoof            74.56      0.00      0.00      0.00      0.00      7.05     81.64       -0.04
  sub115            GreenRoof            74.56      0.00      0.00      0.00      0.00      7.05     81.64       -0.04
  sub116            GreenRoof            74.56      0.00      0.00      0.00      0.00      7.05     81.64       -0.04
  sub117            GreenRoof            74.56      0.00      0.00      0.00      0.00      7.05     81.64       -0.04
  
  ******************
  Node Depth Summary
  ******************
  
  ---------------------------------------------------------------------------------
                                 Average  Maximum  Maximum  Time of Max    Reported
                                   Depth    Depth      HGL   Occurrence   Max Depth
  Node                 Type       Meters   Meters   Meters  days hr:min      Meters
  ---------------------------------------------------------------------------------
  WS02001211           JUNCTION     0.95     2.53     7.37     0  00:50        1.83
  WS02001212           JUNCTION     0.71     2.19     7.25     0  00:50        1.57
  WS02001213           JUNCTION     0.95     2.43     7.19     0  00:50        1.86
  WS02003069           JUNCTION     0.90     1.95     6.53     0  00:49        1.69
  WS02003072           JUNCTION     0.97     1.59     5.96     0  00:52        1.58
  WS02003073           JUNCTION     1.20     1.70     5.77     0  00:53        1.70
  WS02003076           JUNCTION     0.94     1.36     5.58     0  00:53        1.35
  WS02003060           JUNCTION     0.78     1.92     6.86     0  00:49        1.67
  WS02003066           JUNCTION     0.47     1.17     6.73     0  00:52        1.17
  WS02003059           JUNCTION     1.02     2.13     6.82     0  00:50        1.93
  WS02003115           JUNCTION     1.87     2.76     9.62     0  00:38        2.73
  WS02003116           JUNCTION     2.01     3.03     9.74     0  00:29        2.93
  WS02003118           JUNCTION     2.00     2.90     9.52     0  00:29        2.90
  WS02003215           JUNCTION     1.89     2.80     9.66     0  00:38        2.80
  WS02003110           JUNCTION     1.53     2.27     9.53     0  00:51        2.27
  WS02003111           JUNCTION     1.65     2.35     9.44     0  00:38        2.35
  WS02005155           JUNCTION     1.50     2.30     9.61     0  00:51        2.30
  WS02005154           JUNCTION     1.27     2.10     9.73     0  00:51        2.09
  WS02005193           JUNCTION     1.30     3.22    11.04     0  00:48        2.90
  WS02005196           JUNCTION     1.28     3.31    11.16     0  00:48        2.87
  WS02003067           JUNCTION     0.79     1.48     6.80     0  00:53        1.46
  WS02004401           JUNCTION     1.38     2.48     8.48     0  00:52        2.45
  WS02004402           JUNCTION     1.38     2.50     8.46     0  00:52        2.46
  WS02004403           JUNCTION     1.37     2.50     8.43     0  00:52        2.46
  WS02004404           JUNCTION     1.42     2.56     8.41     0  00:52        2.52
  WS02004406           JUNCTION     1.36     2.51     8.34     0  00:52        2.49
  WS02004409           JUNCTION     1.12     2.31     8.08     0  00:52        2.30
  WS02004410           JUNCTION     1.03     2.11     7.83     0  00:52        2.10
  WS02004411           JUNCTION     0.96     1.89     7.57     0  00:52        1.86
  WS02004412           JUNCTION     0.88     1.65     7.29     0  00:52        1.63
  WS02004413           JUNCTION     0.93     1.56     7.03     0  00:53        1.53
  WS02004405           JUNCTION     1.39     2.54     8.39     0  00:52        2.51
  WS02006109           JUNCTION     1.83     2.64     9.26     0  00:46        2.64
  WS02006110           JUNCTION     1.65     2.48     9.07     0  00:51        2.48
  WS02006111           JUNCTION     1.07     2.00     8.70     0  00:51        1.99
  WS02006112           JUNCTION     1.68     2.68     8.56     0  00:00        2.68
  WS02006113           JUNCTION     1.14     1.99     8.89     0  00:51        1.99
  WS02006115           JUNCTION     1.35     2.40     8.54     0  00:51        2.38
  WS02006116           JUNCTION     1.40     2.47     8.51     0  00:52        2.45
  WS02006230           JUNCTION     1.91     2.65     9.39     0  00:43        2.65
  WS02006231           JUNCTION     1.52     2.19     9.31     0  00:55        2.19
  WS02006232           JUNCTION     1.57     2.18     9.22     0  00:43        2.18
  WS02006234           JUNCTION     1.42     1.96     9.12     0  00:41        1.96
  WS02006235           JUNCTION     1.40     1.93     9.10     0  01:08        1.93
  WS02006238           JUNCTION     1.41     1.94     9.08     0  01:33        1.93
  WS02006240           JUNCTION     1.22     1.63     8.92     0  01:31        1.62
  WS02006242           JUNCTION     1.20     1.55     8.82     0  00:36        1.55
  WS02006243           JUNCTION     1.05     1.37     8.79     0  01:01        1.37
  WS02006245           JUNCTION     0.99     1.27     8.75     0  00:41        1.27
  WS02006247           JUNCTION     0.97     1.23     8.73     0  00:44        1.22
  WS02006248           JUNCTION     0.88     1.10     8.69     0  00:35        1.10
  WS02006249           JUNCTION     0.89     1.09     8.69     0  00:32        1.09
  WS02006239           JUNCTION     1.32     1.79     9.00     0  01:08        1.78
  WS02006251           JUNCTION     1.27     2.21     9.88     0  00:48        2.14
  WS02006252           JUNCTION     0.88     1.50     9.74     0  00:48        1.50
  WS02006253           JUNCTION     1.47     3.25    10.90     0  00:48        3.08
  WS02006256           JUNCTION     1.81     2.35     9.28     0  00:18        2.35
  WS02004138           JUNCTION     0.12     0.14     7.39     0  00:50        0.14
  WS02004139           JUNCTION     0.88     2.49     7.40     0  00:50        1.77
  WS02004407           JUNCTION     0.76     2.01     8.32     0  00:51        1.96
  WS02006228           JUNCTION     2.03     3.03     9.68     0  00:51        3.02
  WS02006229           JUNCTION     2.12     3.22     9.92     0  00:50        3.22
  WS02006280           JUNCTION     0.86     1.74    10.02     0  00:52        1.74
  WS02006284           JUNCTION     1.05     1.95    10.35     0  00:51        1.94
  WS02006287           JUNCTION     0.79     1.75    10.70     0  00:50        1.74
  WS02003091           JUNCTION     2.70     4.43    10.23     0  00:00        3.91
  WS02003203           JUNCTION     2.64     3.83     9.82     0  00:42        3.83
  WS6145               JUNCTION     0.34     2.34    10.44     0  00:51        2.32
  WS6147               JUNCTION     0.28     2.26    10.54     0  00:51        2.17
  WS6150               JUNCTION     0.28     2.24    10.57     0  00:51        2.14
  WS6152               JUNCTION     0.29     2.20    10.54     0  00:51        2.14
  WS6155               JUNCTION     0.25     2.10    10.50     0  00:51        2.10
  WS6156               JUNCTION     0.23     2.05    10.52     0  00:51        2.05
  WS6136               JUNCTION     0.31     1.90    10.85     0  00:52        1.90
  WS6140               JUNCTION     0.38     2.47    10.41     0  00:53        2.46
  WS6142               JUNCTION     0.34     2.34    10.42     0  00:53        2.33
  WS6325               JUNCTION     0.58     2.74    10.39     0  00:53        2.73
  WS6327               JUNCTION     0.44     2.58    10.39     0  00:53        2.58
  WS6329               JUNCTION     0.41     2.51    10.39     0  00:53        2.49
  WS6332               JUNCTION     0.34     2.51    10.54     0  00:50        2.35
  WS6158               JUNCTION     0.21     2.05    10.59     0  00:51        2.05
  WS6335               JUNCTION     0.34     2.60    10.67     0  00:50        2.32
  WS6338               JUNCTION     0.29     2.55    10.75     0  00:50        2.19
  WS6340               JUNCTION     0.25     2.50    10.84     0  00:50        2.10
  WS6342               JUNCTION     0.20     2.50    11.10     0  00:50        1.86
  WS6135               JUNCTION     0.74     2.89    10.39     0  00:53        2.88
  WS6396               JUNCTION     0.46     2.02     9.57     0  00:53        2.01
  WS6399               JUNCTION     0.28     1.37     8.80     0  00:52        1.36
  WS02003082           JUNCTION     1.31     1.93     7.00     0  00:54        1.92
  WS02003077           JUNCTION     0.44     0.85     5.85     0  00:52        0.84
  WS02003080           JUNCTION     0.86     1.31     6.24     0  00:52        1.30
  WS02003083           JUNCTION     1.68     2.41     7.44     0  00:55        2.40
  WS02003084           JUNCTION     1.81     2.60     7.70     0  00:52        2.59
  WS02003085           JUNCTION     1.88     2.72     7.89     0  00:55        2.71
  WS02003086           JUNCTION     2.11     3.02     8.22     0  00:53        3.01
  WS02003087           JUNCTION     2.37     3.36     8.58     0  00:57        3.35
  WS02003088           JUNCTION     2.55     4.14     9.43     0  00:00        4.07
  WS02003089           JUNCTION     2.66     4.34     9.80     0  00:00        4.02
  WS02003090           JUNCTION     2.86     4.43     9.86     0  00:00        4.05
  WS02003081           JUNCTION     1.07     1.61     6.65     0  00:54        1.60
  WS02003122           JUNCTION     2.19     3.11     9.48     0  00:49        3.10
  WS02003187           JUNCTION     2.21     3.11     9.44     0  00:28        3.11
  WS02003188           JUNCTION     2.20     2.97     9.23     0  00:29        2.97
  WS02003190           JUNCTION     2.20     2.84     9.04     0  00:29        2.84
  WS02003193           JUNCTION     2.18     2.85     9.09     0  00:27        2.85
  WS02003195           JUNCTION     2.20     2.93     9.18     0  00:36        2.93
  WS02003196           JUNCTION     2.30     3.12     9.30     0  00:50        3.11
  WS02003198           JUNCTION     2.32     3.20     9.38     0  00:50        3.19
  WS02003200           JUNCTION     2.08     2.99     9.43     0  00:36        2.93
  WS02003201           JUNCTION     2.34     3.22     9.36     0  00:36        3.22
  WS02003202           JUNCTION     2.47     4.17    10.23     0  00:00        3.48
  WS02004041           JUNCTION     0.62     0.98     5.34     0  00:53        0.98
  WSA6400              JUNCTION     1.04     2.44     8.28     0  00:52        2.44
  WS6400               JUNCTION     0.42     1.71     8.37     0  00:52        1.70
  WSF208               JUNCTION     0.75     1.97     8.06     0  00:52        1.96
  WSF207               JUNCTION     0.65     1.71     7.84     0  00:52        1.70
  WSF206               JUNCTION     0.73     1.75     7.68     0  00:52        1.75
  WSF205               JUNCTION     0.67     1.62     7.52     0  00:52        1.62
  WSF204               JUNCTION     1.20     2.17     7.32     0  00:52        2.16
  WSF203               JUNCTION     0.60     1.37     7.08     0  00:52        1.36
  WSF202               JUNCTION     0.53     1.20     6.93     0  00:53        1.20
  WSF201               JUNCTION     0.45     1.05     6.78     0  00:53        1.05
  WSF200               JUNCTION     0.59     1.46     6.69     0  00:52        1.45
  HS02004901           JUNCTION     0.66     1.42    11.24     0  00:46        1.42
  HS02004881           JUNCTION     0.46     2.15    11.18     0  00:48        1.80
  HS02004876           JUNCTION     0.58     2.17    11.20     0  00:48        2.05
  HS02004870           JUNCTION     0.48     2.10    11.39     0  00:48        1.97
  HS02004862           JUNCTION     0.49     2.00    11.38     0  00:48        1.98
  HS02004856           JUNCTION     0.52     2.07    11.50     0  00:48        2.07
  HS02004852           JUNCTION     0.46     2.10    11.61     0  00:48        2.00
  HS02004848           JUNCTION     0.45     2.07    11.67     0  00:48        1.93
  HS02004842           JUNCTION     0.75     2.22    11.49     0  00:48        2.22
  HS02004837           JUNCTION     0.47     2.04    11.62     0  00:47        1.87
  HS02004830           JUNCTION     0.54     2.03    11.50     0  00:48        1.95
  HS02004824           JUNCTION     0.58     1.99    11.39     0  00:53        1.99
  HS02004817           JUNCTION     1.06     2.40    11.24     0  00:52        2.39
  HS02004807           JUNCTION     0.75     1.92    11.09     0  00:50        1.92
  HS02004802           JUNCTION     0.77     1.81    10.94     0  00:50        1.79
  HS02004799           JUNCTION     0.87     1.76    10.97     0  00:47        1.76
  HS02004792           JUNCTION     0.68     1.60    11.12     0  00:44        1.60
  HS02004788           JUNCTION     0.50     1.42    11.32     0  00:46        1.35
  HS02004785           JUNCTION     0.55     1.49    11.39     0  00:46        1.35
  HS02004777           JUNCTION     0.67     1.48    11.28     0  00:46        1.46
  HS02004770           JUNCTION     0.65     1.42    11.25     0  00:46        1.42
  HS02004480           JUNCTION     0.77     1.67    10.91     0  00:48        1.64
  HS02004479           JUNCTION     0.81     1.69    10.89     0  00:47        1.67
  HS02004478           JUNCTION     0.66     1.59    10.82     0  00:50        1.58
  HS02004053           JUNCTION     0.26     1.90    10.67     0  00:51        1.09
  HS02004052           JUNCTION     0.32     1.49    11.14     0  00:51        1.38
  HS02004049           JUNCTION     0.18     1.04    11.72     0  00:51        0.86
  HS02004048           JUNCTION     0.43     1.70    12.60     0  00:49        1.70
  HS02004046           JUNCTION     0.41     1.80    13.52     0  00:50        1.54
  HS02004043           JUNCTION     0.20     1.96    14.65     0  00:50        1.38
  HS02004041           JUNCTION     0.13     0.36    15.80     0  00:52        0.36
  HS02004038           JUNCTION     0.12     0.33    19.02     0  00:52        0.33
  HS02004036           JUNCTION     0.00     0.00    22.46     0  00:00        0.00
  HS02004034           JUNCTION     0.00     0.00    26.83     0  00:00        0.00
  HS02004028           JUNCTION     0.18     0.51    37.36     0  00:49        0.51
  HS02004027           JUNCTION     0.14     0.34    36.47     0  00:49        0.34
  HS02004026           JUNCTION     0.15     0.35    35.75     0  00:49        0.35
  HS02004024           JUNCTION     0.15     0.42    34.63     0  00:49        0.40
  HS02004022           JUNCTION     0.21     0.80    33.84     0  00:49        0.80
  HS02004021           JUNCTION     0.25     0.81    32.54     0  00:47        0.81
  HS02004019           JUNCTION     0.31     0.80    31.76     0  00:46        0.80
  HS02004018           JUNCTION     0.21     0.60    33.81     0  00:49        0.60
  HS02004017           JUNCTION     0.19     0.53    34.37     0  00:49        0.53
  HS02004013           JUNCTION     0.12     0.41    35.54     0  00:52        0.41
  HS02004010           JUNCTION     0.05     0.16    38.02     0  00:52        0.16
  HS02003174           JUNCTION     0.16     0.42     5.96     0  00:53        0.42
  HS02003171           JUNCTION     0.18     0.47     6.15     0  00:51        0.47
  HS02003170           JUNCTION     0.22     0.46     6.91     0  00:52        0.45
  HS02003168           JUNCTION     0.11     0.29     6.79     0  00:52        0.29
  HS02003166           JUNCTION     0.21     0.47     6.95     0  00:52        0.47
  HS02003162           JUNCTION     0.20     0.42    30.68     0  00:47        0.42
  HS02003160           JUNCTION     0.15     0.35    28.41     0  00:51        0.35
  HS02003150           JUNCTION     0.16     0.37    26.39     0  00:51        0.37
  HS02003148           JUNCTION     0.17     0.46    22.20     0  00:51        0.46
  HS02003145           JUNCTION     0.22     0.81    14.68     0  00:50        0.81
  HS02003143           JUNCTION     0.33     0.80    13.27     0  00:44        0.80
  HS02003138           JUNCTION     0.16     0.39     6.88     0  01:36        0.39
  HS02003136           JUNCTION     1.31     2.28    10.00     0  00:00        2.28
  HS02003125           JUNCTION     1.43     2.38     9.83     0  00:38        2.26
  HS02003122           JUNCTION     1.47     2.47     9.90     0  00:38        2.34
  HS02003119           JUNCTION     1.24     2.52    10.24     0  00:38        2.11
  HS02003116           JUNCTION     0.94     2.43    10.55     0  00:38        1.71
  HS02003111           JUNCTION     0.44     0.83     9.84     0  00:51        0.82
  HS02003108           JUNCTION     0.34     0.95    10.06     0  00:48        0.76
  HS02003100           JUNCTION     0.23     0.68     9.91     0  00:51        0.66
  HS02003088           JUNCTION     0.19     0.63     9.92     0  00:51        0.62
  HS02003084           JUNCTION     0.07     0.50     9.93     0  00:52        0.49
  HS02003079           JUNCTION     0.05     0.43     9.94     0  00:52        0.42
  HS02003077           JUNCTION     0.01     0.23     9.97     0  00:51        0.23
  HS02003065           JUNCTION     0.59     1.80    11.04     0  00:42        1.58
  HS02003056           JUNCTION     0.61     1.73    10.68     0  00:49        1.67
  HS02003053           JUNCTION     0.41     1.66    10.96     0  00:42        1.51
  HS02003042           JUNCTION     0.28     1.69    11.35     0  00:44        1.42
  HS02003039           JUNCTION     0.31     1.74    11.39     0  00:49        1.60
  HS02003036           JUNCTION     0.16     1.41    11.47     0  00:49        1.41
  HS02003028           JUNCTION     0.26     1.40    11.14     0  00:49        1.40
  HS02003021           JUNCTION     0.28     1.55    10.92     0  00:49        1.49
  HS02003018           JUNCTION     0.29     1.48    10.69     0  00:49        1.48
  HS02003017           JUNCTION     0.30     1.48    10.64     0  00:49        1.48
  HS02003013           JUNCTION     0.29     1.47    10.52     0  00:49        1.42
  HS02003010           JUNCTION     0.32     1.39    10.19     0  00:49        1.30
  HS02003007           JUNCTION     0.28     1.22     9.84     0  00:49        1.11
  HS02003004           JUNCTION     0.36     1.05     9.37     0  00:49        0.99
  HS02003001           JUNCTION     0.10     0.28     8.58     0  00:52        0.28
  YS02001738           JUNCTION     0.00     0.00     8.89     0  00:00        0.00
  YS02001739           JUNCTION     0.00     0.00     8.37     0  00:00        0.00
  YS02001742           JUNCTION     0.00     0.00     8.49     0  00:00        0.00
  YS02001745           JUNCTION     0.12     0.31     7.83     0  00:52        0.31
  YS02001748           JUNCTION     0.14     0.36     7.43     0  00:52        0.36
  YS02001751           JUNCTION     0.14     0.36     7.24     0  00:53        0.36
  YS02001754           JUNCTION     0.14     0.48     7.09     0  00:54        0.48
  YS02001762           JUNCTION     0.32     0.93     7.33     0  00:54        0.93
  YS02001765           JUNCTION     0.30     0.92     7.37     0  00:53        0.92
  YS02001767           JUNCTION     0.32     0.94     7.43     0  00:53        0.94
  YS02001770           JUNCTION     0.37     1.03     7.52     0  00:53        1.02
  YS02001774           JUNCTION     0.44     1.11     7.53     0  00:53        1.10
  YS02001779           JUNCTION     0.20     0.84     7.52     0  00:53        0.84
  YS02001882           JUNCTION     0.67     1.80     8.51     0  00:48        1.64
  YS02001884           JUNCTION     0.76     1.86     8.48     0  00:48        1.74
  YS02001759           JUNCTION     0.32     0.92     7.28     0  00:53        0.91
  YS02001887           JUNCTION     0.84     1.88     8.41     0  00:48        1.82
  YS02001890           JUNCTION     0.87     1.81     8.32     0  00:48        1.81
  YS02001898           JUNCTION     0.64     1.77     8.51     0  00:48        1.56
  YS02001901           JUNCTION     0.74     1.77     8.38     0  00:48        1.67
  YS02001904           JUNCTION     0.72     1.64     8.27     0  00:48        1.63
  YS02001907           JUNCTION     1.03     1.96     8.25     0  00:49        1.96
  YS02001910           JUNCTION     0.85     2.03     8.54     0  00:49        1.99
  YS02001915           JUNCTION     0.68     2.00     8.72     0  00:48        1.95
  YS02001918           JUNCTION     0.43     1.81     8.88     0  00:49        1.81
  YS02001920           JUNCTION     0.52     2.11     9.12     0  00:51        2.09
  YS02001923           JUNCTION     0.35     2.03     9.29     0  00:50        2.03
  YS02001926           JUNCTION     0.37     1.90     9.35     0  00:50        1.90
  YS02001929           JUNCTION     0.24     1.78     9.47     0  00:50        1.77
  YS02001932           JUNCTION     0.15     1.77     9.57     0  00:51        1.35
  YS02001935           JUNCTION     0.10     1.75     9.68     0  00:51        0.98
  YS02001757           JUNCTION     0.29     0.86     7.12     0  00:53        0.85
  YS02001895           JUNCTION     0.64     1.75     8.50     0  00:48        1.56
  YS02005679           JUNCTION     0.00     0.00    10.24     0  00:00        0.00
  YS02005559           JUNCTION     0.09     0.18    10.12     0  00:53        0.18
  YS02005651           JUNCTION     0.06     0.16    10.93     0  00:52        0.16
  YS02005670           JUNCTION     0.07     0.17    10.63     0  00:51        0.17
  YS02005547           JUNCTION     0.05     0.14    10.67     0  00:51        0.13
  YS02005549           JUNCTION     0.07     0.20    11.11     0  00:51        0.20
  YS02005550           JUNCTION     0.09     0.22    10.85     0  00:52        0.22
  YS02005551           JUNCTION     0.05     0.13    10.50     0  00:52        0.13
  YS02005553           JUNCTION     0.11     0.25    10.61     0  00:53        0.25
  YS02005554           JUNCTION     0.06     0.12    10.36     0  00:53        0.12
  YS02005556           JUNCTION     0.11     0.24    10.29     0  00:53        0.23
  YS02005557           JUNCTION     0.06     0.12    10.09     0  00:53        0.12
  YS02005560           JUNCTION     0.07     0.13     9.88     0  00:53        0.13
  YS02005562           JUNCTION     0.10     0.21     9.95     0  00:52        0.21
  YS02005563           JUNCTION     0.06     0.12     9.78     0  00:53        0.12
  YS02005565           JUNCTION     0.09     0.18     9.89     0  00:53        0.18
  YS02005566           JUNCTION     0.08     0.15     9.54     0  00:53        0.15
  YS02005568           JUNCTION     0.11     0.23     9.73     0  00:53        0.23
  YS02005569           JUNCTION     0.09     0.17     9.50     0  00:53        0.17
  YS02005598           JUNCTION     0.18     1.07    10.91     0  00:49        1.07
  YS02005600           JUNCTION     0.15     1.02    10.68     0  00:49        1.02
  YS02005602           JUNCTION     0.34     2.15    10.43     0  00:50        2.15
  YS02005603           JUNCTION     0.12     1.18     9.30     0  00:50        0.58
  YS02005609           JUNCTION     0.07     0.19     9.08     0  00:52        0.19
  YS02005653           JUNCTION     0.09     0.54    11.51     0  00:51        0.45
  YS02005654           JUNCTION     0.11     0.53    11.28     0  00:51        0.39
  YS02005655           JUNCTION     0.05     0.13    10.76     0  00:52        0.13
  YS02005595           JUNCTION     0.27     1.36    11.04     0  00:47        1.36
  YS02005658           JUNCTION     0.09     0.25    11.16     0  00:52        0.25
  YS02005659           JUNCTION     0.05     0.13    10.79     0  00:52        0.13
  YS02005661           JUNCTION     0.11     0.47    11.18     0  00:50        0.39
  YS02005662           JUNCTION     0.05     0.12    10.74     0  00:52        0.12
  YS02005664           JUNCTION     0.12     0.43    11.01     0  00:50        0.40
  YS02005665           JUNCTION     0.04     0.11    10.67     0  00:52        0.11
  YS02005668           JUNCTION     0.05     0.12    10.28     0  00:52        0.12
  YS02005667           JUNCTION     0.26     0.64    10.66     0  00:51        0.63
  YS02005571           JUNCTION     0.13     0.26     9.74     0  00:53        0.26
  YS02005572           JUNCTION     0.10     0.19     9.54     0  00:53        0.19
  YS02005576           JUNCTION     0.10     0.20     9.96     0  00:53        0.20
  YS02005577           JUNCTION     0.09     0.18     9.66     0  00:53        0.18
  YS02005579           JUNCTION     0.19     0.54    10.17     0  00:53        0.54
  YS02005580           JUNCTION     0.11     0.25     9.78     0  00:53        0.25
  YS02005582           JUNCTION     0.28     0.86    10.94     0  00:50        0.86
  YS02005583           JUNCTION     0.14     0.93    10.93     0  00:50        0.41
  YS02005612           JUNCTION     0.38     1.23     9.36     0  00:52        1.23
  YS02005615           JUNCTION     0.05     0.13    11.62     0  00:51        0.13
  YS02005616           JUNCTION     0.04     0.11    10.93     0  00:51        0.11
  YS02005618           JUNCTION     0.07     0.21    11.06     0  00:51        0.20
  YS02005619           JUNCTION     0.05     0.12    10.67     0  00:51        0.12
  YS02005621           JUNCTION     0.08     0.25    11.36     0  00:51        0.25
  YS02005622           JUNCTION     0.04     0.10    11.07     0  00:51        0.10
  YS02005625           JUNCTION     0.03     0.09    11.11     0  00:51        0.09
  YS02005627           JUNCTION     0.10     0.25    11.18     0  00:51        0.25
  YS02005628           JUNCTION     0.04     0.10    11.00     0  00:51        0.10
  YS02005630           JUNCTION     0.09     0.25    11.32     0  00:52        0.25
  YS02005631           JUNCTION     0.04     0.11    10.98     0  00:52        0.11
  YS02005633           JUNCTION     0.08     0.23    11.35     0  00:52        0.23
  YS02005634           JUNCTION     0.05     0.12    10.96     0  00:52        0.12
  YS02005636           JUNCTION     0.09     0.28    11.28     0  00:52        0.28
  YS02005637           JUNCTION     0.05     0.14    10.90     0  00:52        0.14
  YS02005639           JUNCTION     0.09     0.24    10.87     0  00:52        0.24
  YS02005640           JUNCTION     0.06     0.14    10.47     0  00:52        0.14
  YS02005642           JUNCTION     0.07     0.18    11.01     0  00:52        0.18
  YS02005644           JUNCTION     0.11     0.55    11.66     0  00:52        0.55
  YS02005645           JUNCTION     0.07     0.19    11.00     0  00:52        0.19
  YS02005647           JUNCTION     0.18     0.92    11.81     0  00:52        0.92
  YS02005648           JUNCTION     0.08     0.21    11.01     0  00:52        0.21
  YS02005650           JUNCTION     0.12     0.54    11.43     0  00:50        0.45
  YS02005671           JUNCTION     0.03     0.09    10.31     0  00:51        0.09
  YS02005673           JUNCTION     0.07     0.19    10.54     0  00:52        0.19
  YS02005674           JUNCTION     0.05     0.12    10.01     0  00:52        0.12
  YS02005676           JUNCTION     0.00     0.00    10.24     0  00:00        0.00
  YS02005680           JUNCTION     0.05     0.12    10.22     0  00:52        0.12
  YS02005682           JUNCTION     0.00     0.00    10.06     0  00:00        0.00
  YS02005683           JUNCTION     0.03     0.07     9.97     0  00:52        0.07
  YS02005376           JUNCTION     0.70     1.01    11.10     0  00:34        1.01
  YS02005378           JUNCTION     1.22     1.62    11.15     0  00:34        1.62
  YS02005381           JUNCTION     1.09     1.57    11.20     0  00:34        1.57
  YS02005624           JUNCTION     0.21     0.42    11.31     0  00:51        0.42
  YS02005384           JUNCTION     0.34     0.80    10.45     0  00:34        0.77
  YS02005677           JUNCTION     0.05     0.13    10.21     0  00:52        0.13
  YSB1105              JUNCTION     0.25     0.53    10.01     0  00:51        0.51
  YSB1106              JUNCTION     0.23     1.69    11.52     0  00:51        0.73
  YSB1109              JUNCTION     0.28     1.42    11.36     0  00:51        1.10
  YSB1112              JUNCTION     0.28     1.95    12.08     0  00:51        1.30
  YSB1115              JUNCTION     0.26     1.90    12.20     0  00:51        1.28
  YSB1118              JUNCTION     0.27     1.80    12.34     0  00:51        1.43
  YSB1121              JUNCTION     0.32     1.70    12.37     0  00:51        1.70
  YSB1124              JUNCTION     0.18     1.60    12.43     0  00:51        1.54
  YSB1128              JUNCTION     0.36     1.85    12.43     0  00:47        1.52
  YSB1132              JUNCTION     0.41     1.90    12.35     0  00:47        1.64
  YSB1228              JUNCTION     0.05     0.15    10.99     0  00:51        0.15
  YSB1202              JUNCTION     0.88     1.50    12.39     0  00:44        1.46
  YSB1135              JUNCTION     0.51     2.00    12.26     0  00:47        1.82
  YSB1138              JUNCTION     0.60     1.90    12.07     0  00:47        1.90
  YSB1141              JUNCTION     0.64     2.00    11.83     0  00:47        1.88
  YSB1145              JUNCTION     0.65     2.00    11.69     0  00:47        1.84
  YSB1148              JUNCTION     0.72     2.00    11.50     0  00:47        1.89
  YSB1151              JUNCTION     0.90     2.08    11.31     0  00:47        2.00
  YSB1154              JUNCTION     1.05     2.10    11.16     0  00:47        2.10
  YSB1198              JUNCTION     0.17     1.60    12.39     0  00:48        1.17
  YSB1192              JUNCTION     0.34     1.90    12.17     0  00:47        1.70
  YSB6556              JUNCTION     0.89     1.80    10.97     0  00:47        1.80
  YSB1205              JUNCTION     1.05     1.65    12.35     0  00:44        1.65
  YSB1209              JUNCTION     1.02     1.65    12.22     0  00:44        1.65
  YSB1212              JUNCTION     0.92     1.60    12.13     0  00:44        1.60
  YSB1215              JUNCTION     0.92     1.70    12.05     0  00:44        1.69
  YSB1218              JUNCTION     0.91     1.75    11.94     0  00:44        1.75
  YSB1221              JUNCTION     0.86     1.60    11.57     0  00:44        1.58
  YSB1224              JUNCTION     0.76     1.33    11.18     0  01:01        1.33
  YSB1195              JUNCTION     0.30     1.90    12.28     0  00:47        1.59
  YSB1189              JUNCTION     0.44     1.80    11.96     0  00:47        1.80
  YSB1186              JUNCTION     0.49     1.94    11.81     0  00:48        1.74
  YSB1183              JUNCTION     0.61     2.05    11.64     0  00:47        1.88
  YSB1180              JUNCTION     0.64     1.95    11.46     0  00:47        1.83
  YSB1177              JUNCTION     0.89     2.05    11.24     0  00:47        2.01
  YSB1174              JUNCTION     0.95     1.95    11.06     0  00:50        1.95
  YSB1171              JUNCTION     1.12     1.95    10.85     0  00:47        1.95
  YS02006553           JUNCTION     1.03     2.04     8.33     0  00:49        1.97
  YS02006561           JUNCTION     0.35     1.37     8.03     0  00:49        0.91
  YS02006562           JUNCTION     0.81     1.95     8.46     0  00:49        1.77
  YS02006556           JUNCTION     1.00     2.10     8.41     0  00:49        1.96
  YS02006558           JUNCTION     1.04     2.17     8.43     0  00:49        2.02
  YS6132               JUNCTION     0.48     3.25    10.58     0  00:57        1.52
  YS6137               JUNCTION     0.23     1.77     9.56     0  00:56        1.25
  YS6189               JUNCTION     0.32     1.88     9.67     0  00:52        1.33
  YS6184               JUNCTION     0.31     2.22    10.11     0  00:52        1.12
  YS6179               JUNCTION     0.25     2.37    10.35     0  00:52        1.06
  YS6176               JUNCTION     0.18     0.91     9.11     0  00:55        0.91
  YS6171               JUNCTION     0.19     0.71     9.12     0  00:55        0.68
  YS6168               JUNCTION     0.21     0.64     9.15     0  00:54        0.63
  YS6164               JUNCTION     0.05     0.44     9.17     0  00:54        0.43
  YS6162               JUNCTION     0.09     0.56     9.21     0  00:54        0.53
  YS6187               JUNCTION     0.36     1.95     9.73     0  00:52        1.31
  YS6363               JUNCTION     0.28     2.48    10.27     0  00:52        1.27
  YS6360               JUNCTION     0.38     2.83    10.63     0  00:52        1.44
  YS6354               JUNCTION     0.35     2.40    10.55     0  00:52        1.76
  YS6351               JUNCTION     0.43     2.50    10.71     0  00:52        2.11
  YS6350               JUNCTION     0.48     2.50    10.72     0  00:52        2.33
  YS6348               JUNCTION     0.44     2.45    10.85     0  00:50        2.45
  YS6344               JUNCTION     0.26     2.39    10.99     0  00:55        2.26
  YS6375               JUNCTION     0.08     0.28     8.71     0  00:52        0.28
  YS6377               JUNCTION     0.14     0.35     8.71     0  00:52        0.35
  YS6381               JUNCTION     0.15     0.40     8.53     0  00:52        0.40
  YS6386               JUNCTION     0.18     0.47     8.45     0  00:52        0.47
  YS6390               JUNCTION     0.40     0.61     8.30     0  00:53        0.61
  YS6394               JUNCTION     0.10     0.24     8.16     0  00:53        0.24
  YS6404               JUNCTION     0.46     3.00    10.23     0  00:52        1.20
  YS6401               JUNCTION     0.15     0.40     7.62     0  00:54        0.40
  YS02004319           JUNCTION     0.28     1.18    20.80     0  00:46        1.18
  YS02004320           JUNCTION     0.00     0.00    22.64     0  01:01        0.00
  YS02004321           JUNCTION     0.00     0.00    26.80     0  00:59        0.00
  YS02004307           JUNCTION     0.15     0.52    11.05     0  00:53        0.52
  YS02004309           JUNCTION     0.69     1.55    13.07     0  00:39        1.55
  YS02004312           JUNCTION     0.43     1.48    14.91     0  00:45        1.48
  YS02004314           JUNCTION     0.32     1.28    16.99     0  00:46        1.28
  YS02004316           JUNCTION     0.32     1.36    19.13     0  00:46        1.36
  YS02001783           JUNCTION     0.55     1.54     7.68     0  00:49        1.24
  YS02001784           JUNCTION     0.54     1.29     7.35     0  00:49        1.13
  YS02001786           JUNCTION     0.44     1.08     7.11     0  00:49        0.88
  YS02001788           JUNCTION     0.32     0.62     6.60     0  00:49        0.62
  YS02001790           JUNCTION     0.37     0.72     6.37     0  00:58        0.72
  YS02001791           JUNCTION     0.23     0.44     5.91     0  00:59        0.43
  YS02001793           JUNCTION     0.12     0.29     5.12     0  00:51        0.28
  YS02003309           JUNCTION     0.50     1.21     9.77     0  00:35        1.04
  YS02003306           JUNCTION     0.61     1.16     9.60     0  00:35        1.16
  YS02003269           JUNCTION     0.13     0.17     7.76     0  00:48        0.17
  YS02003272           JUNCTION     0.34     0.86     8.59     0  00:35        0.58
  YS02003278           JUNCTION     0.65     1.21     9.13     0  00:55        1.21
  YS02003281           JUNCTION     0.71     1.39     9.47     0  00:47        1.39
  YS02003284           JUNCTION     0.79     1.40     9.41     0  00:47        1.40
  YS02003287           JUNCTION     0.75     1.27     9.34     0  00:35        1.27
  YS02003290           JUNCTION     0.62     1.11     9.40     0  00:36        1.11
  YS02003294           JUNCTION     0.77     1.24     9.42     0  00:35        1.24
  YS02003275           JUNCTION     0.49     0.94     8.85     0  00:35        0.91
  YS02003297           JUNCTION     0.75     1.22     9.43     0  00:35        1.22
  YS02003300           JUNCTION     0.69     1.15     9.42     0  00:35        1.15
  YS02003303           JUNCTION     0.67     1.14     9.46     0  00:35        1.14
  YSB1227              JUNCTION     0.01     0.09    10.99     0  00:51        0.09
  CaochengRainPumpOutfall1 OUTFALL      0.00     0.00     6.00     0  00:00        0.00
  JiankangRainPumpOutfall2 OUTFALL      0.00     0.00     6.00     0  00:00        0.00
  JiankangRainPumpOutfall1 OUTFALL      0.00     0.00     6.00     0  00:00        0.00
  CaochengRainPumpOutfall2 OUTFALL      0.00     0.00     6.00     0  00:00        0.00
  YS02005684           OUTFALL      0.03     0.07     8.48     0  00:52        0.07
  YS02005681           OUTFALL      0.05     0.12     9.34     0  00:52        0.12
  YS02005678           OUTFALL      0.05     0.13     8.66     0  00:52        0.13
  YS02005675           OUTFALL      0.05     0.12     8.66     0  00:52        0.12
  YS02005672           OUTFALL      0.03     0.09     8.42     0  00:51        0.09
  YS02005669           OUTFALL      0.05     0.12     8.84     0  00:52        0.12
  YS02005666           OUTFALL      0.04     0.11     8.79     0  00:52        0.11
  YS02005663           OUTFALL      0.05     0.12     8.85     0  00:52        0.12
  YS02005660           OUTFALL      0.05     0.13     8.94     0  00:52        0.13
  YS02005657           OUTFALL      0.00     0.00     8.74     0  00:00        0.00
  YS02005652           OUTFALL      0.06     0.16     8.78     0  00:52        0.16
  YS02005649           OUTFALL      0.08     0.21     8.91     0  00:52        0.21
  YS02005646           OUTFALL      0.07     0.19     8.19     0  00:52        0.19
  YS02005643           OUTFALL      0.07     0.18     8.74     0  00:52        0.18
  YS02005641           OUTFALL      0.05     0.14     8.84     0  00:52        0.14
  YS02005638           OUTFALL      0.05     0.14     8.80     0  00:52        0.14
  YS02005635           OUTFALL      0.05     0.12     8.78     0  00:52        0.12
  YS02005632           OUTFALL      0.04     0.11     8.67     0  00:52        0.11
  YS02005629           OUTFALL      0.04     0.10     8.57     0  00:51        0.10
  YS02005626           OUTFALL      0.03     0.09     8.61     0  00:51        0.09
  YS02005623           OUTFALL      0.04     0.10     8.58     0  00:51        0.10
  YS02005620           OUTFALL      0.05     0.12     8.92     0  00:51        0.12
  YS02005617           OUTFALL      0.04     0.11     8.95     0  00:51        0.11
  YSB1103              OUTFALL      0.25     0.60     8.60     0  00:51        0.60
  YSB1229              OUTFALL      0.05     0.15     8.95     0  00:51        0.14
  YS02005548           OUTFALL      0.05     0.14     9.13     0  00:51        0.13
  YS02005552           OUTFALL      0.05     0.13     8.75     0  00:52        0.13
  YS02005555           OUTFALL      0.06     0.12     8.85     0  00:53        0.12
  YS02005558           OUTFALL      0.06     0.12     8.82     0  00:53        0.12
  YS02005561           OUTFALL      0.07     0.13     8.81     0  00:53        0.13
  YS02005564           OUTFALL      0.06     0.12     8.60     0  00:53        0.12
  YS02005567           OUTFALL      0.08     0.15     8.69     0  00:53        0.15
  YS02005570           OUTFALL      0.09     0.17     8.89     0  00:53        0.17
  YS02005574           OUTFALL      0.10     0.19     9.03     0  00:53        0.19
  YS02005578           OUTFALL      0.09     0.18     8.96     0  00:53        0.18
  WS02005134           OUTFALL      0.00     0.00     8.74     0  00:00        0.00
  YS02005581           OUTFALL      0.12     0.28     9.08     0  00:53        0.28
  YS02005584           OUTFALL      0.13     0.30     9.26     0  00:50        0.30
  YS02005593           OUTFALL      0.23     0.28     9.00     0  00:56        0.28
  YS02005596           OUTFALL      0.13     0.30     8.84     0  00:47        0.30
  YS02005374           OUTFALL      0.12     0.30     8.54     0  00:48        0.30
  YS02005375           OUTFALL      0.11     0.30     8.69     0  00:49        0.30
  YS02005607           OUTFALL      0.10     0.30     7.53     0  00:49        0.30
  YS02005610           OUTFALL      0.07     0.19     8.80     0  00:52        0.19
  YS02005613           OUTFALL      0.13     0.30     8.58     0  00:50        0.30
  HS02003172           OUTFALL      0.16     0.42     5.88     0  00:53        0.42
  YS6395               OUTFALL      0.10     0.24     6.67     0  00:53        0.24
  YS6405               OUTFALL      0.14     0.39     3.84     0  00:54        0.37
  WSC                  OUTFALL      0.57     0.80     5.00     0  00:42        0.80
  JiankangQianchi      STORAGE      2.83     4.22     5.02     0  00:51        4.20
  CaochengTiaoxuchi    STORAGE      0.86     1.22     6.72     0  01:04        1.22
  XierchiQianchi       STORAGE      7.03     7.47     5.47     0  02:01        7.46
  
  
  *******************
  Node Inflow Summary
  *******************
  
  -------------------------------------------------------------------------------------------------
                                  Maximum  Maximum                  Lateral       Total        Flow
                                  Lateral    Total  Time of Max      Inflow      Inflow     Balance
                                   Inflow   Inflow   Occurrence      Volume      Volume       Error
  Node                 Type           LPS      LPS  days hr:min    10^6 ltr    10^6 ltr     Percent
  -------------------------------------------------------------------------------------------------
  WS02001211           JUNCTION      7.35   219.31     0  01:18      0.0538        1.18       4.047
  WS02001212           JUNCTION      0.00   236.18     0  01:20           0        1.14       2.267
  WS02001213           JUNCTION      0.00   249.42     0  01:20           0        1.12       3.118
  WS02003069           JUNCTION      0.32  2520.20     0  00:53     0.00234        9.79       0.676
  WS02003072           JUNCTION      0.00  2520.36     0  00:53           0        9.73       0.594
  WS02003073           JUNCTION      1.82  3088.14     0  00:53      0.0133        12.9       0.291
  WS02003076           JUNCTION      0.00  3088.35     0  00:53           0        12.9       0.310
  WS02003060           JUNCTION     16.53  2520.20     0  00:53       0.121        9.85       0.546
  WS02003066           JUNCTION      0.00  2332.32     0  00:52           0        8.72       0.109
  WS02003059           JUNCTION      0.00   256.16     0  00:49           0         1.1       5.129
  WS02003115           JUNCTION      0.00   477.09     0  01:02           0       0.914       0.556
  WS02003116           JUNCTION      0.00   247.33     0  00:29           0        1.01       0.815
  WS02003118           JUNCTION      0.14   222.47     0  00:37    4.22e-06           1       1.516
  WS02003215           JUNCTION      0.18  1756.17     0  00:52    2.04e-05        2.28       1.186
  WS02003110           JUNCTION      0.18   328.78     0  00:52     0.00132       0.431       1.737
  WS02003111           JUNCTION      1.52   807.13     0  00:52      0.0107        1.26       0.568
  WS02005155           JUNCTION      0.38   328.68     0  00:52     0.00279        0.43       2.292
  WS02005154           JUNCTION    328.22   328.22     0  00:52       0.426       0.427       1.372
  WS02005193           JUNCTION      0.00   121.39     0  00:32           0      0.0153     133.052
  WS02005196           JUNCTION      0.00    72.59     0  00:32           0     0.00582     586.668
  WS02003067           JUNCTION      0.00  1870.11     0  00:52           0        6.91       0.203
  WS02004401           JUNCTION      0.00  1107.02     0  01:29           0        5.56       0.561
  WS02004402           JUNCTION      0.00  1107.31     0  01:29           0        5.54       0.508
  WS02004403           JUNCTION      0.00  1107.45     0  01:29           0        5.52       0.438
  WS02004404           JUNCTION      0.16  1107.86     0  01:29     0.00119         5.5       0.299
  WS02004406           JUNCTION      0.00  1107.80     0  01:29           0        5.47       0.751
  WS02004409           JUNCTION      0.12  1827.42     0  00:51    0.000134        7.64       0.450
  WS02004410           JUNCTION      0.00  1870.21     0  00:52           0        7.68       0.460
  WS02004411           JUNCTION      0.00  1869.97     0  00:52           0        7.02       0.485
  WS02004412           JUNCTION      0.00  1870.06     0  00:52           0        6.99       0.485
  WS02004413           JUNCTION      0.00  1869.99     0  00:52           0        6.95       0.627
  WS02004405           JUNCTION      0.16  1107.86     0  01:29     0.00038        5.49       0.443
  WS02006109           JUNCTION      1.91  1308.01     0  00:00     0.00959        6.23       0.356
  WS02006110           JUNCTION      0.25  1106.81     0  01:29    0.000114        5.69      -0.343
  WS02006111           JUNCTION      0.04  1176.04     0  00:00    4.02e-06        5.68      -0.317
  WS02006112           JUNCTION      0.48  2307.30     0  00:00    2.68e-05         5.7       0.309
  WS02006113           JUNCTION      0.00  1106.79     0  01:29           0        5.66      -0.412
  WS02006115           JUNCTION      0.00  2155.86     0  00:00           0        5.61       0.584
  WS02006116           JUNCTION      0.27  1107.03     0  01:29    0.000282        5.58       0.471
  WS02006230           JUNCTION     10.44  1027.98     0  00:50      0.0752        2.98       0.542
  WS02006231           JUNCTION      0.49   453.53     0  00:52     0.00113        1.83       0.911
  WS02006232           JUNCTION      0.12   453.60     0  00:52     2.6e-05        1.84       0.976
  WS02006234           JUNCTION      0.12   453.47     0  00:52    3.86e-06        1.85       0.663
  WS02006235           JUNCTION      0.27   415.03     0  00:52    0.000446        1.94       0.562
  WS02006238           JUNCTION      0.00   415.22     0  00:52           0        1.87       0.403
  WS02006240           JUNCTION      0.00   414.93     0  00:52           0         1.9       0.867
  WS02006242           JUNCTION      0.13   414.98     0  00:52     1.2e-05        1.92       1.032
  WS02006243           JUNCTION      0.56   278.13     0  01:30     0.00103        1.47       1.101
  WS02006245           JUNCTION      0.00   278.24     0  01:30           0        1.48       0.906
  WS02006247           JUNCTION      0.00   287.32     0  00:30           0        1.49       0.801
  WS02006248           JUNCTION      0.97   344.97     0  00:41    0.000116         1.8       0.613
  WS02006249           JUNCTION      0.10  1369.74     0  00:52    2.99e-06        4.97       0.337
  WS02006239           JUNCTION      0.00   415.07     0  00:52           0        1.89       0.673
  WS02006251           JUNCTION      0.08  1668.33     0  00:52    0.000563        5.12       0.353
  WS02006252           JUNCTION      0.00   667.47     0  00:54           0        2.08      -0.009
  WS02006253           JUNCTION     44.99  1668.28     0  00:52      0.0577         3.6       0.568
  WS02006256           JUNCTION      0.00   300.00     0  00:36           0        1.53       0.066
  WS02004138           JUNCTION      0.00   190.00     0  00:29           0        1.17       0.256
  WS02004139           JUNCTION      0.32   190.32     0  00:50     0.00235        1.17       3.341
  WS02004407           JUNCTION      0.04  1827.43     0  00:51    1.19e-05        7.69       0.338
  WS02006228           JUNCTION      1.07  1289.91     0  00:51    0.000653        6.21       0.243
  WS02006229           JUNCTION      0.78  2308.04     0  00:50    0.000589         8.9       0.280
  WS02006280           JUNCTION      0.22  2307.57     0  00:51    0.000257        8.65       0.029
  WS02006284           JUNCTION      0.12  2307.54     0  00:51    0.000703        8.66       0.145
  WS02006287           JUNCTION      0.12  2307.62     0  00:51    3.53e-05        8.67       0.104
  WS02003091           JUNCTION      0.40  1194.64     0  00:00    0.000767        3.35      -1.215
  WS02003203           JUNCTION      0.34  2264.56     0  00:00    0.000144        4.97       0.221
  WS6145               JUNCTION      0.19   235.83     0  00:51    0.000284      0.0899       0.375
  WS6147               JUNCTION      0.00   236.41     0  00:51           0      0.0789       0.224
  WS6150               JUNCTION      0.05   236.82     0  00:51    0.000363       0.068       0.496
  WS6152               JUNCTION      0.58   240.37     0  00:51     0.00422      0.0572       0.748
  WS6155               JUNCTION      0.01   239.63     0  00:51    4.01e-05      0.0422       0.570
  WS6156               JUNCTION      0.71   236.49     0  00:51     0.00381       0.031       0.366
  WS6136               JUNCTION      0.16   740.96     0  00:50    4.72e-05        1.31       0.049
  WS6140               JUNCTION      0.13   234.37     0  00:51      0.0001        0.11       0.112
  WS6142               JUNCTION      0.14   235.14     0  00:51    0.000125       0.101       0.211
  WS6325               JUNCTION      0.17   150.67     0  00:50    0.000162      0.0879       1.533
  WS6327               JUNCTION      0.11   150.68     0  00:50    0.000436      0.0783       0.143
  WS6329               JUNCTION      0.46   151.02     0  00:50     0.00181      0.0676       0.214
  WS6332               JUNCTION      0.32   151.10     0  00:50    0.000692      0.0548       0.184
  WS6158               JUNCTION      1.60   258.66     0  00:51      0.0117      0.0155      -1.276
  WS6335               JUNCTION      0.64   151.70     0  00:50     0.00347      0.0429       0.404
  WS6338               JUNCTION      0.29   151.91     0  00:50     0.00093       0.028       0.164
  WS6340               JUNCTION      0.11   153.63     0  00:50    0.000115      0.0155       0.365
[...]
  WS02003196WS02003198        1.58      1.59      1.58      1.08         0.94
  WS02003195WS02003196        1.57      1.57      1.57      0.98         0.91
  WS02003193WS02003195        1.57      1.57      1.57      0.23         0.24
  WS02003188WS02003190        1.57      1.57      1.58      0.55         0.56
  WS02003187WS02003188        1.56      1.56      1.57      0.93         0.94
  WS02003202WS02003203        1.62      1.63      1.64      0.75         0.01
  WS02003190WS02003193        1.57      1.57      1.58      0.01         0.01
  WS02005155WS02003110        1.49      1.49      1.50      0.11         0.13
  WS02003203WS02003091        1.63      1.64      1.64      1.57         1.55
  WS02003091WS02003090        1.66      1.66      1.71      0.01         0.01
  WS02003090WS02003089        1.68      1.68      1.70      1.76         0.01
  WS02003089WS02003088        1.67      1.68      1.70      1.60         1.59
  WS02003088WS02003087        1.70      1.71      1.70      1.77         1.70
  WS02003087WS02003086        1.64      1.64      1.72      1.68         0.01
  WS02003086WS02003085        1.63      1.63      1.68      1.74         0.01
  WS02003085WS02003084        1.64      1.65      1.64      1.66         1.63
  WS02003084WS02003083        1.63      1.65      1.63      1.84         1.63
  WS02003083WS02003082        1.62      1.62      1.65      1.74         0.01
  WS02003082WS02003081        1.61      1.62      1.61      1.73         1.61
  WS02003081WS02003080        1.61      1.61      1.61      1.62         1.61
  WS02003080WS02003077        0.51      0.51      1.61      1.62         0.01
  WS02003073WS02003076        0.60      0.60      1.38      0.19         0.01
  HS02004901HS02004770        0.62      0.62      0.63      0.01         0.01
  HS02004876HS02004881        0.61      0.63      0.61      1.53         0.61
  HS02004870HS02004876        0.55      0.55      0.63      0.01         0.01
  HS02004049HS02004052        0.11      0.11      0.14      0.01         0.01
  HS02004048HS02004049        0.21      0.31      0.21      0.36         0.21
  HS02004046HS02004048        0.13      0.13      0.31      0.01         0.01
  HS02004043HS02004046        0.10      0.10      0.16      0.01         0.01
  HS02004041HS02004043        0.01      0.01      0.10      0.01         0.01
  HS02004028HS02004027        0.01      0.12      0.01      0.13         0.01
  HS02003143HS02003065        0.48      0.48      0.66      0.01         0.01
  HS02004842HS02004848        0.48      0.48      0.68      0.01         0.01
  HS02004837HS02004842        0.51      0.51      0.68      0.01         0.01
  HS02004830HS02004837        0.51      0.51      0.56      0.01         0.01
  HS02004824HS02004830        0.56      0.56      0.61      0.01         0.01
  HS02004817HS02004824        0.61      0.61      1.45      0.01         0.01
  HS02004770HS02004777        0.62      0.62      0.63      0.01         0.01
  HS02004799HS02004480        0.78      0.78      0.86      0.88         0.01
  HS02004792HS02004799        0.72      0.72      0.86      0.01         0.01
  HS02004788HS02004792        0.57      0.57      0.72      0.01         0.01
  HS02004785HS02004788        0.57      0.58      0.57      1.44         0.50
  HS02004777HS02004785        0.58      0.58      0.63      0.01         0.01
  HS02004480HS02004478        0.71      0.78      0.71      1.63         0.71
  HS02004479HS02004480        0.78      0.78      0.81      0.01         0.01
  HS02003013HS02003010        0.29      0.29      0.33      0.17         0.17
  HS02003010HS02003007        0.27      0.27      0.28      0.32         0.27
  HS02003007HS02003004        0.28      0.28      0.36      0.14         0.14
  HS02003004HS02003001        0.01      0.36      0.01      0.87         0.01
  HS02003065HS02003056        0.64      0.64      0.78      0.01         0.01
  HS02003042HS02003053        0.23      0.23      0.61      0.01         0.01
  HS02003028HS02003021        0.17      0.17      0.23      0.01         0.01
  HS02003021HS02003018        0.26      0.26      0.27      0.06         0.06
  HS02003018HS02003017        0.28      0.28      0.28      0.06         0.05
  HS02003017HS02003013        0.28      0.28      0.29      0.22         0.21
  HS02004862HS02004870        0.53      0.53      0.55      0.22         0.20
  HS02004848HS02004852        0.48      0.48      0.51      0.03         0.01
  HS02004856HS02004862        0.48      0.48      0.53      0.01         0.01
  HS02004852HS02004856        0.51      0.51      0.53      0.02         0.01
  HS02004024HS02004022        0.01      0.01      0.16      0.01         0.01
  HS02004022HS02004021        0.16      0.16      0.25      0.01         0.01
  HS02004021HS02004019        0.25      0.25      0.33      0.18         0.19
  HS02004019HS02003162        0.01      0.33      0.01      0.36         0.01
  HS02004052HS02004053        0.13      0.14      0.13      0.15         0.13
  HS02003122HS02003125        1.41      1.41      1.41      0.11         0.14
  HS02003119HS02003122        1.40      1.40      1.42      0.01         0.01
  HS02003116HS02003119        0.95      0.95      1.40      0.01         0.01
  HS02003111HS02003116        0.01      0.01      1.02      0.01         0.01
  HS02004018HS02004019        0.18      0.18      0.33      0.01         0.01
  HS02003056HS02003136        0.67      0.67      1.43      0.01         0.01
  HS02004017HS02004018        0.17      0.17      0.18      0.01         0.01
  HS02004013HS02004017        0.01      0.01      0.17      0.01         0.01
  HS02004802HS02004478        0.72      0.72      0.78      0.11         0.01
  HS02004478WS02006287        0.58      0.58      0.77      0.01         0.01
  HS02003148HS02003145        0.01      0.01      0.09      0.01         0.01
  HS02003145HS02003143        0.09      0.09      0.45      0.08         0.07
  HS02003136WS02003203        1.44      1.44      1.56      0.01         0.01
  HS02003108HS02003111        0.11      0.11      0.29      0.01         0.01
  HS02003100HS02003108        0.05      0.05      0.11      0.01         0.01
  HS02003088HS02003100        0.04      0.04      0.05      0.01         0.01
  HS02004817HS02004807        0.76      0.76      1.45      0.01         0.01
  HS02004807HS02004802        0.76      0.76      0.77      0.25         0.25
  HS02003053HS02003056        0.61      0.61      0.78      0.01         0.01
  HS02003039HS02003042        0.28      0.29      0.32      0.17         0.02
  HS02003036HS02003039        0.13      0.13      0.17      0.01         0.01
  YS02001759YS02001757        0.01      0.01      0.01      0.11         0.01
  YS02001762YS02001759        0.01      0.01      0.01      0.09         0.01
  YS02001770YS02001767        0.01      0.03      0.01      0.52         0.01
  YS02001774YS02001770        0.01      0.01      0.06      0.01         0.01
  YS02001779YS02001774        0.01      0.01      0.06      0.01         0.01
  YS02001767YS02001765        0.01      0.01      0.01      0.12         0.01
  YS02006561YS02001783        0.35      0.35      0.53      0.01         0.01
  YS02001783YS02001784        0.50      0.53      0.50      0.67         0.50
  YS02001784YS02001785        0.41      0.50      0.41      0.92         0.41
  YS02001790YS02001791        0.01      0.01      0.01      0.49         0.01
  YS02001910YS02001907        0.55      0.55      0.73      0.01         0.01
  YS02001786YS02001788        0.01      0.41      0.01      0.77         0.01
  YS02001915YS02001910        0.47      0.47      0.55      0.01         0.01
  YS02001918YS02001915        0.39      0.39      0.47      0.01         0.01
  YS02001923YS02001920        0.33      0.33      0.41      0.01         0.01
  YS02001926YS02001923        0.09      0.09      0.12      0.01         0.01
  YS02001929YS02001926        0.02      0.02      0.12      0.01         0.01
  YS02001932YS02001929        0.01      0.01      0.02      0.01         0.01
  YS02001935YS02001932        0.01      0.01      0.01      0.01         0.01
  YS02001920YS02001918        0.39      0.39      0.41      0.01         0.01
  YS02003290YS02003287        1.18      1.18      1.47      0.01         0.01
  YS02003294YS02003290        1.20      1.20      1.54      0.02         0.01
  YS02003297YS02003294        1.48      1.48      1.50      0.24         0.25
  YS02003275YS02003272        0.96      1.08      0.96      1.38         0.96
  YS02003300YS02003297        1.26      1.26      1.42      0.01         0.01
  YS02003303YS02003300        1.16      1.16      1.33      0.01         0.01
  YS02005582YS02005583        0.24      0.48      0.24      0.69         0.24
  YS02003272YS02003269        0.01      1.03      0.01      1.38         0.01
  YS02003278YS02003275        1.13      1.52      1.13      1.68         1.13
  YS02003281YS02003278        1.33      1.33      1.49      1.12         1.12
  YS02003284YS02003281        1.33      1.33      1.49      0.82         0.24
  YS02003287YS02003284        1.42      1.42      1.56      0.01         0.04
  YS02003306YS02003303        1.11      1.11      1.26      0.35         0.35
  YS02003309YS02003306        1.01      1.01      1.11      0.01         0.01
  YS02005600YS02005375        0.12      0.12      0.13      0.13         0.12
  YS02005384YS02005593        0.01      1.14      0.01      1.21         0.01
  YS02005595YS02005596        0.24      0.25      0.24      0.27         0.24
  YS02005612YS02005613        0.07      0.07      0.91      0.27         0.01
  YS02005553YS02005554        0.01      0.01      0.01      0.06         0.01
  YS02005556YS02005557        0.01      0.01      0.01      0.07         0.01
  YS02005562YS02005563        0.01      0.01      0.01      0.01         0.01
  YS02005571YS02005572        0.01      0.01      0.01      0.18         0.01
  YS02005579YS02005580        0.01      0.32      0.01      0.51         0.01
  YS02005580YS02005581        0.01      0.01      0.01      0.07         0.01
  YS02005583YS02005584        0.24      0.24      0.25      0.25         0.24
  YS02006553YS02006556        0.64      0.64      0.75      0.01         0.01
  YS02006556YS02006558        0.69      0.69      0.77      0.01         0.01
  YSB6556YSB1171              0.88      0.88      1.55      0.01         0.01
  YSB1202YSB1205              1.30      1.30      1.32      0.01         0.01
  YSB1205YSB1209              1.32      1.32      1.32      1.02         0.97
  YSB1209YSB1212              1.30      1.32      1.30      1.41         1.30
  YSB1212YSB1215              1.30      1.30      1.30      0.75         0.74
  YSB1215YSB1218              1.30      1.30      1.30      0.83         0.81
  YSB1218YSB1221              1.29      1.29      1.30      1.11         1.11
  YSB1221YSB1224              1.30      1.30      1.31      1.29         1.30
  YSB1224YSB1105              0.87      1.34      0.87      1.42         0.87
  YSB1189YSB1186              0.51      0.51      0.61      0.12         0.13
  YS02001907YS02006553        0.93      0.93      1.01      0.01         0.01
  YS02006562YS02006558        0.53      0.53      0.77      0.01         0.01
  YS02006558YS02006561        0.43      0.63      0.43      0.87         0.43
  YS6184YS6187                0.08      0.08      0.09      0.01         0.01
  YS6360YS6363                0.03      0.10      0.03      0.56         0.03
  YS6354YS6360                0.14      0.14      0.14      0.14         0.13
  YS6351YS6354                0.14      0.17      0.14      0.34         0.14
  YS6350YS6351                0.17      0.19      0.17      0.61         0.17
  YS6348YS6350                0.18      0.18      0.19      0.17         0.16
  YS6344YS6348                0.18      0.18      0.24      0.01         0.01
  YS6363YS6132                0.03      0.03      0.19      0.01         0.01
  YS6137YS6132                0.12      0.12      0.27      0.01         0.01
  YS6189YS6137                0.11      0.12      0.14      1.16         0.01
  YS6187YS6189                0.06      0.06      0.09      0.22         0.01
  YS6179YS6184                0.03      0.03      0.08      0.01         0.01
  YS6176YS6179                0.01      0.01      0.03      0.01         0.01
  YS6171YS6176                0.01      0.01      0.03      0.01         0.01
  YS6132YS6404                0.01      0.09      0.01      0.22         0.01
  YSB1106YSB1105              0.01      0.11      0.01      0.15         0.01
  YSB1109YSB1106              0.11      0.17      0.11      0.30         0.11
  YSB1112YSB1109              0.17      0.17      0.17      0.20         0.17
  YSB1115YSB1112              0.15      0.15      0.17      0.10         0.09
  YSB1118YSB1115              0.18      0.18      0.18      0.20         0.18
  YSB1121YSB1118              0.18      0.20      0.18      0.29         0.18
  YSB1124YSB1121              0.17      0.17      0.20      0.01         0.01
  YSB1105YSB1103              0.01      0.01      0.08      0.08         0.01
  YS02001882YS02001884        0.48      0.48      0.49      0.01         0.01
  YS02001884YS02001887        0.51      0.51      0.52      0.01         0.01
  YS02001890YS02001895        0.47      0.47      0.55      0.01         0.01
  YS02001895YS02001898        0.46      0.46      0.47      0.01         0.01
  YS02001898YS02001901        0.47      0.47      0.50      0.01         0.01
  YS02001901YS02001904        0.50      0.50      0.50      0.01         0.01
  YS02001904YS02001907        0.50      0.50      0.75      0.01         0.01
  YS02001887YS02001890        0.53      0.53      0.54      0.12         0.01
  YS02004309YS02004307        0.10      0.83      0.10      0.82         0.10
  YS02004319YS02004316        0.30      0.30      0.31      0.01         0.01
  YS02005376YS02005378        1.53      1.53      1.79      0.01         0.01
  YS02005378YS02005381        1.75      1.75      1.79      0.50         0.01
  YS02005381YS02005384        1.14      1.14      1.75      1.77         0.01
  YS02005598YS02005374        0.16      0.16      0.17      0.17         0.16
  YS02005602YS02005603        0.10      0.34      0.10      0.44         0.10
  YS02005603YS02005607        0.10      0.10      0.11      0.11         0.10
  YS02005621YS02005622        0.01      0.01      0.01      0.02         0.01
  YS02005624YS02005625        0.01      0.01      0.20      0.01         0.01
  YS02005630YS02005631        0.01      0.01      0.01      0.02         0.01
  YS02005636YS02005637        0.01      0.01      0.01      0.06         0.01
  YS02005627YS02005628        0.01      0.01      0.01      0.19         0.01
  YS02005644YS02005645        0.01      0.08      0.01      0.11         0.01
  YS02005650YS02005651        0.01      0.07      0.01      0.15         0.01
  YS02005653YS02005654        0.05      0.05      0.06      0.05         0.05
  YS02005654YS02005655        0.01      0.06      0.01      0.14         0.01
  YS02005658YS02005659        0.01      0.01      0.01      0.02         0.01
  YS02005661YS02005662        0.01      0.05      0.01      0.16         0.01
  YS02005664YS02005665        0.01      0.07      0.01      0.40         0.01
  YS02005667YS02005668        0.01      0.01      0.43      0.09         0.01
  YS02005647YS02005648        0.01      0.20      0.01      0.33         0.01
  YS02004312YS02004309        0.52      0.52      0.83      0.01         0.01
  YS02004314YS02004312        0.34      0.34      0.52      0.01         0.01
  YS02004316YS02004314        0.31      0.31      0.34      0.26         0.26
  YS02004320YS02004319        0.01      0.01      0.22      0.01         0.01
  YS6404YS6401                0.01      0.01      0.01      0.54         0.01
  YSB1132YSB1135              0.50      0.50      0.55      0.01         0.01
  YSB1135YSB1138              0.55      0.55      0.58      0.01         0.01
  YSB1138YSB1141              0.58      0.58      0.67      0.32         0.33
  YSB1141YSB1145              0.65      0.65      0.67      0.31         0.29
  YSB1148YSB1151              0.75      0.75      0.99      0.01         0.01
  YSB1151YSB1154              0.85      0.85      1.15      0.01         0.01
  YSB1154YSB6556              0.88      0.88      1.15      0.34         0.01
  YSB1128YSB1132              0.48      0.48      0.50      0.01         0.01
  YSB1145YSB1148              0.67      0.67      0.75      0.01         0.01
  YSB1198YSB1195              0.23      0.23      0.45      0.01         0.01
  YSB1195YSB1192              0.45      0.45      0.48      0.01         0.01
  YSB1192YSB1189              0.48      0.48      0.51      0.01         0.01
  YSB1186YSB1183              0.56      0.56      0.67      0.01         0.01
  YSB1183YSB1180              0.67      0.67      0.71      0.16         0.17
  YSB1180YSB1177              0.71      0.71      1.04      0.01         0.01
  YSB1177YSB1174              1.04      1.04      1.28      0.17         0.18
  YSB1174YSB1171              0.99      0.99      1.49      0.12         0.12
  YSB1171HS02004479           0.75      0.75      1.13      0.01         0.01
  YS02004307HS02004052        0.01      0.01      0.14      0.01         0.01
  HS02004881HS02006253        0.61      0.61      1.43      0.01         0.01
  WS0200404049WS6136          0.12      0.12      0.20      0.01         0.01
  HS02003125WS02003215        1.41      1.41      1.44      0.01         0.01
  YS02001793JiankangQianchi        0.01      0.01      2.02      0.01         0.01
  YS02001757CaochengTiaoxuchi        0.01      0.01      0.53      0.01         0.01
  WS02004041WS6409            0.95      0.95      1.03      1.03         0.95
  WSF200WS02003060            0.20      0.20      0.44      0.01         0.01
  HS02004053WS02004407        0.13      0.13      0.99      0.01         0.01
  HS02003036HS02003028        0.13      0.13      0.22      0.01         0.01
  
  
  ***************
  Pumping Summary
  ***************
  
  ---------------------------------------------------------------------------------------------------------
                                                  Min       Avg       Max     Total     Power    % Time Off
                        Percent   Number of      Flow      Flow      Flow    Volume     Usage    Pump Curve
  Pump                 Utilized   Start-Ups       LPS       LPS       LPS  10^6 ltr     Kw-hr    Low   High
  ---------------------------------------------------------------------------------------------------------
  CaochengSewagePump1     84.07           1      0.00    200.00    200.00     1.230      9.45    0.0    0.0
  CaochengSewagePump2     49.17           1      0.00    200.00    200.00     0.720      5.87    0.0    0.0
  CaochengRainPump1       44.15           1      0.00    683.00    683.00     2.207      2.67    0.0   52.2
  CaochengRainPump2        0.00           0      0.00      0.00      0.00     0.000      0.00    0.0    0.0
  JiankangSewagePump      69.82           1      0.00    300.00    300.00     1.533     24.23    0.0    0.0
  JiankangRainPump1       29.05           4      0.00   1000.00   1000.00     2.126     14.06    0.0    0.0
  JiankangRainPump2        0.00           0      0.00      0.00      0.00     0.000      0.00    0.0    0.0
  XierchiSewagePump1      91.79           1      0.00     95.00     95.00     0.638      3.94    0.0    0.0
  XierchiSewagePump2      76.20           1      0.00     95.00     95.00     0.530      3.10    0.0    0.0
  XierchiSewagePump3       0.00           0      0.00      0.00      0.00     0.000      0.00    0.0    0.0
  XierchiSewagePump4       0.00           0      0.00      0.00      0.00     0.000      0.00    0.0    0.0
  

  Analysis begun on:  Sun Oct 23 10:55:21 2022
  Analysis ended on:  Sun Oct 23 11:27:17 2022
  Total elapsed time: 00:31:56