
  EPA STORM WATER MANAGEMENT MODEL - VERSION 5.1 (Build 5.3.0.dev0)
  --------------------------------------------------------------

  WARNING 04: minimum elevation drop used for Conduit WS02004404WS02004405
  WARNING 03: negative offset ignored for Link YS02001904YS02001907
  
  *********************************************************
  NOTE: The summary statistics displayed in this report are
  based on results found at every computational time step,  
  not just on results from each reporting time step.
  *********************************************************
  
  ****************
  Analysis Options
  ****************
  Flow Units ............... LPS
  Process Models:
    Rainfall/Runoff ........ YES
    RDII ................... NO
    Snowmelt ............... NO
    Groundwater ............ NO
    Flow Routing ........... YES
    Ponding Allowed ........ NO
    Water Quality .......... NO
  Infiltration Method ...... HORTON
  Flow Routing Method ...... DYNWAVE
  Surcharge Method ......... EXTRAN
  Starting Date ............ 03/31/2017 00:00:00
  Ending Date .............. 03/31/2017 03:00:00
  Antecedent Dry Days ...... 8.0
  Report Time Step ......... 00:00:30
  Wet Time Step ............ 00:01:00
  Dry Time Step ............ 00:01:00
  Routing Time Step ........ 30.00 sec
  Variable Time Step ....... YES
  Maximum Trials ........... 8
  Number of Threads ........ 6
  Head Tolerance ........... 0.001500 m
  
  
  **************************        Volume         Depth
  Runoff Quantity Continuity     hectare-m            mm
  **************************     ---------       -------
  Initial LID Storage ......         0.284         2.409
  Total Precipitation ......        10.619        90.112
  Evaporation Loss .........         0.000         0.000
  Infiltration Loss ........         0.306         2.601
  Surface Runoff ...........         8.726        74.050
  Final Storage ............         1.883        15.978
  Continuity Error (%) .....        -0.116
  
  
  **************************        Volume        Volume
  Flow Routing Continuity        hectare-m      10^6 ltr
  **************************     ---------     ---------
  Dry Weather Inflow .......         0.171         1.707
  Wet Weather Inflow .......         8.701        87.014
  Groundwater Inflow .......         0.000         0.000
  RDII Inflow ..............         0.000         0.000
  External Inflow ..........         0.033         0.330
  External Outflow .........         4.794        47.938
  Flooding Loss ............         3.877        38.768
  Evaporation Loss .........         0.000         0.000
  Exfiltration Loss ........         0.000         0.000
  Initial Stored Volume ....         0.303         3.031
  Final Stored Volume ......         0.569         5.685
  Continuity Error (%) .....        -0.335
  
  
  *************************
  Highest Continuity Errors
  *************************
  Node WS02005193 (57.98%)
  Node YS02001884 (25.88%)
  Node YS02001774 (7.30%)
  Node YS02004320 (7.04%)
  Node HS02003116 (5.03%)
  
  
  ***************************
  Time-Step Critical Elements
  ***************************
  Link YS02005655YS02005657 (42.25%)
  Link WS02006252WS02006251 (21.58%)
  Link WS02004041WS6409 (18.28%)
  Link WS02003073WS02003076 (2.04%)
  Link WS02006280WS02006229 (1.75%)
  
  
  ********************************
  Highest Flow Instability Indexes
  ********************************
  Link WS02006238WS02006235 (69)
  Link WS02003215WS02003116 (67)
  Link WS02003200WS02003201 (66)
  Link WS02003122WS02003187 (66)
  Link WS02003203WS02003091 (61)
  
  
  *************************
  Routing Time Step Summary
  *************************
  Minimum Time Step           :     0.50 sec
  Average Time Step           :     0.96 sec
  Maximum Time Step           :    30.00 sec
  Percent in Steady State     :     0.00
  Average Iterations per Step :     6.24
  Percent Not Converging      :    39.79
  
  
  ***************************
  Subcatchment Runoff Summary
  ***************************
  
  ------------------------------------------------------------------------------------------------------------------------------
                            Total      Total      Total      Total     Imperv       Perv      Total       Total     Peak  Runoff
                           Precip      Runon       Evap      Infil     Runoff     Runoff     Runoff      Runoff   Runoff   Coeff
  Subcatchment                 mm         mm         mm         mm         mm         mm         mm    10^6 ltr      LPS
  ------------------------------------------------------------------------------------------------------------------------------
  sub0                      90.11       0.00       0.00       0.73      81.50       5.26      86.76        0.07    54.75   0.963
  sub1                      90.11       0.00       0.00       1.26      72.19       7.60      79.78        0.53   348.31   0.885
  sub2                      90.11       0.00       0.00       3.77      47.31      20.89      68.20        0.64   338.90   0.757
  sub3                      90.11       0.00       0.00       3.78      47.58      19.83      67.41        1.52   740.93   0.748
  sub4                      90.11       0.00       0.00       1.17      72.96       7.61      80.57        1.68   874.05   0.894
  sub5                      90.11       0.00       0.00       1.05      68.85       4.46      73.31        0.83   556.14   0.814
  sub6                      90.11       0.00       0.00       0.99      70.23       4.56      74.79        1.93  1211.34   0.830
  sub7                      90.11       0.00       0.00       0.97      78.09       6.61      84.70        0.29   203.36   0.940
  sub8                      90.11       0.00       0.00       0.95      78.47       6.65      85.12        0.54   372.93   0.945
  sub9                      90.11       0.00       0.00       0.95      78.33       6.64      84.96        0.41   278.62   0.943
  sub10                     90.11       0.00       0.00       0.99      73.58       5.50      79.07        0.87   585.14   0.877
  sub11                     90.11       0.00       0.00       0.91      76.98       5.75      82.73        0.96   670.82   0.918
  sub12                     90.11       0.00       0.00       1.62      63.94       8.14      72.07        0.63   483.98   0.800
  sub13                     90.11       0.00       0.00       3.56      56.28      23.18      79.45        0.94   578.38   0.882
  sub14                     90.11       0.00       0.00       1.00      76.49       6.48      82.97        0.79   537.74   0.921
  sub15                     90.11       0.00       0.00       3.12      52.46      18.19      70.64        1.22   761.48   0.784
  sub16                     90.11       0.00       0.00       3.40      51.23      20.73      71.96        0.75   514.67   0.799
  sub17                     90.11       0.00       0.00       3.28      48.28      18.70      66.98        0.57   394.31   0.743
  sub18                     90.11       0.00       0.00       0.98      77.84       6.59      84.43        0.67   491.96   0.937
  sub19                     90.11       0.00       0.00       3.18      46.94      17.37      64.31        0.20   140.08   0.714
  sub20                     90.11       0.00       0.00       1.01      76.31       6.46      82.77        0.58   411.82   0.919
  sub21                     90.11       0.00       0.00       1.35      72.81       8.46      81.27        0.41   306.12   0.902
  sub22                     90.11       0.00       0.00       4.35      44.50      26.23      70.73        4.47  2607.84   0.785
  sub23                     90.11       0.00       0.00       3.75      46.99      22.20      69.19        3.30  2078.95   0.768
  sub24                     90.11       0.00       0.00       1.58      69.51       9.61      79.11        2.84  2080.49   0.878
  sub25                     90.11       0.00       0.00       0.97      72.88       4.70      77.58        1.00   799.00   0.861
  sub26                     90.11       0.00       0.00       2.59      55.58      14.85      70.43        1.00   814.59   0.782
  sub27                     90.11       0.00       0.00       1.06      74.14       6.28      80.42        1.16   789.05   0.892
  sub28                     90.11       0.00       0.00       0.94      75.45       5.63      81.08        1.27   857.45   0.900
  sub29                     90.11       0.00       0.00       1.07      69.65       5.21      74.86        1.21   741.45   0.831
  sub30                     90.11       0.00       0.00       0.97      75.42       5.62      81.04        1.83  1391.21   0.899
  sub31                     90.11       0.00       0.00       1.87      67.24      11.68      78.91        1.67  1294.33   0.876
  sub32                     90.11       0.00       0.00       1.01      73.36       5.47      78.83        1.57  1139.39   0.875
  sub33                     90.11       0.00       0.00       1.46      71.51       9.10      80.61        1.48  1126.34   0.895
  sub34                     90.11       0.00       0.00       4.84      36.21      29.54      65.75        1.47   992.58   0.730
  sub35                     90.11       0.00       0.00       0.91      78.45       5.84      84.29        0.29   255.87   0.935
  sub36                     90.11       0.00       0.00       2.41      57.54      13.73      71.27        0.62   492.19   0.791
  sub37                     90.11       0.00       0.00       3.92      45.71      24.39      70.10        0.53   409.16   0.778
  sub38                     90.11       0.00       0.00       3.55      47.97      21.71      69.68        1.32  1058.66   0.773
  sub39                     90.11       0.00       0.00       1.00      74.86       5.58      80.43        0.86   696.70   0.893
  sub40                     90.11       0.00       0.00       0.91      78.17       5.82      84.00        0.98   798.03   0.932
  sub41                     90.11       0.00       0.00       1.76      69.13      11.19      80.31        1.54  1216.93   0.891
  sub42                     90.11       0.00       0.00       0.98      78.39       6.64      85.02        0.85   682.48   0.944
  sub43                     90.11       0.00       0.00       3.91      50.25      25.20      75.44        0.61   417.95   0.837
  sub44                     90.11       0.00       0.00       0.94      73.02       4.73      77.75        0.88   601.11   0.863
  sub45                     90.11       0.00       0.00       1.95      61.49      10.62      72.11        1.32   929.26   0.800
  sub46                     90.11       0.00       0.00       5.88      26.07      35.48      61.54        0.43   257.50   0.683
  sub47                     90.11       0.00       0.00       1.09      70.68       5.27      75.96        0.58   426.25   0.843
  sub48                     90.11       0.00       0.00       0.98      77.79       6.59      84.38        0.64   460.04   0.936
  sub49                     90.11       0.00       0.00       1.03      72.38       5.40      77.78        0.71   494.72   0.863
  sub50                     90.11       0.00       0.00       0.97      74.71       5.58      80.29        0.56   392.10   0.891
  sub51                     90.11       0.00       0.00       0.88      78.44       5.85      84.29        0.40   292.84   0.935
  sub52                     90.11       0.00       0.00       0.94      73.08       4.73      77.81        0.84   582.20   0.864
  sub53                     90.11       0.00       0.00       0.97      74.94       5.59      80.53        0.81   588.84   0.894
  sub54                     90.11       0.00       0.00       0.99      70.93       4.60      75.53        0.45   298.75   0.838
  sub55                     90.11       0.00       0.00       0.90      76.92       5.74      82.67        0.66   441.57   0.917
  sub56                     90.11       0.00       0.00       2.00      68.65      13.21      81.85        1.16   679.28   0.908
  sub57                     90.11       0.00       0.00       3.25      59.38      21.18      80.56        0.52   307.39   0.894
  sub58                     90.11       0.00       0.00       6.59      18.30      35.61      53.91        1.99   867.60   0.598
  sub59                     90.11       0.00       0.00       6.66      14.56      32.35      46.91        1.07   408.02   0.521
  sub60                     90.11       0.00       0.00       1.30      74.39       8.63      83.02        1.09   767.44   0.921
  sub61                     90.11       0.00       0.00       1.87      66.69      11.52      78.21        1.44  1021.87   0.868
  sub62                     90.11       0.00       0.00       0.96      74.56       5.57      80.13        2.20  1452.77   0.889
  sub67                     90.11       0.00       0.00       1.11      69.24       5.17      74.41        1.38   942.67   0.826
  sub68                     90.11       0.00       0.00       1.52      71.64       9.87      81.51        2.24  1518.43   0.905
  sub71                     90.11       0.00       0.00       0.88      76.69       5.73      82.42        2.16  1310.68   0.915
  sub72                     90.11       0.00       0.00       0.88      73.20       4.77      77.97        1.07   613.11   0.865
  sub73                     90.11       0.00       0.00       2.25      65.16      14.65      79.81        0.08    61.69   0.886
  sub74                     90.11       0.00       0.00       3.32      54.54      21.44      75.98        0.12    92.63   0.843
  sub75                     90.11       0.00       0.00       3.13      56.56      20.34      76.90        0.17   132.16   0.853
  sub76                     90.11       0.00       0.00       1.93      68.96      12.82      81.78        0.20   155.28   0.908
  sub77                     90.11       0.00       0.00       1.83      70.14      12.20      82.34        0.13   103.63   0.914
  sub78                     90.11       0.00       0.00       1.59      65.03       8.27      73.30        0.20   154.16   0.813
  sub79                     90.11       0.00       0.00       2.54      62.25      16.44      78.68        0.20   147.10   0.873
  sub80                     90.11       0.00       0.00       3.43      54.78      22.45      77.23        0.23   167.59   0.857
  sub81                     90.11       0.00       0.00       3.81      50.85      24.57      75.42        0.23   161.42   0.837
  sub82                     90.11       0.00       0.00       3.79      49.77      24.18      73.95        0.22   160.77   0.821
  sub83                     90.11       0.00       0.00       3.87      48.67      24.74      73.41        0.25   182.20   0.815
  sub84                     90.11       0.00       0.00       3.60      51.39      22.73      74.12        0.40   277.51   0.823
  sub85                     90.11       0.00       0.00       2.52      65.65      17.30      82.95        0.37   261.07   0.921
  sub86                     90.11       0.00       0.00       2.74      61.95      18.14      80.09        0.39   277.58   0.889
  sub87                     90.11       0.00       0.00       3.65      55.06      24.51      79.57        0.24   170.84   0.883
  sub88                     90.11       0.00       0.00       3.55      55.97      23.91      79.88        0.24   177.15   0.887
  sub89                     90.11       0.00       0.00       3.24      57.92      21.79      79.70        0.21   162.75   0.884
  sub90                     90.11       0.00       0.00       2.83      62.49      19.38      81.87        0.20   153.38   0.909
  sub91                     90.11       0.00       0.00       2.84      62.16      19.39      81.55        0.15   117.62   0.905
  sub92                     90.11       0.00       0.00       3.24      57.65      21.86      79.51        0.12    98.61   0.882
  sub93                     90.11       0.00       0.00       3.24      58.23      22.09      80.32        0.15   121.26   0.891
  sub94                     90.11       0.00       0.00       3.24      58.53      22.10      80.64        0.17   137.99   0.895
  sub95                     90.11       0.00       0.00       3.04      58.45      20.13      78.58        0.12    96.03   0.872
  sub96                     90.11       0.00       0.00       2.35      64.44      15.45      79.89        0.15   128.77   0.887
  sub97                     90.11       0.00       0.00       5.66      27.15      35.72      62.87        0.15   122.53   0.698
  sub98                     90.11       0.00       0.00       6.50      19.13      40.13      59.26        0.19   123.86   0.658
  sub99                     90.11       0.00       0.00       6.92      13.81      40.82      54.63        0.19    99.06   0.606
  sub100                    90.11       0.00       0.00       6.91      13.76      39.33      53.09        0.19    85.24   0.589
  sub101                    90.11       0.00       0.00       6.86      13.57      38.72      52.29        0.18    80.34   0.580
  sub102                    90.11       0.00       0.00       6.63      15.48      36.21      51.69        0.16    68.31   0.574
  sub103                    90.11       0.00       0.00       6.86      14.46      37.09      51.55        0.24   101.66   0.572
  sub104                    90.11       0.00       0.00       6.80      14.25      36.33      50.58        0.27   108.93   0.561
  sub105                    90.11       0.00       0.00       8.50      16.69      48.11      64.80        0.37   134.86   0.719
  sub106                    90.11       0.00       0.00       6.89      13.65      38.07      51.71        0.26   113.89   0.574
  sub107                    90.11       0.00       0.00       7.01      12.27      39.79      52.06        0.37   167.73   0.578
  sub108                    90.11       0.00       0.00       7.08      11.65      41.87      53.52        0.50   259.79   0.594
  sub109                    90.11       0.00       0.00       5.51      21.60      31.04      52.64        0.75   470.42   0.584
  sub110                    90.11       0.00       0.00       2.01      63.40      11.76      75.16        1.58  1182.10   0.834
  sub111                    90.11       0.00       0.00       2.76      55.71      16.38      72.09        0.62   458.93   0.800
  sub112                    90.11       0.00       0.00       2.27      62.99      14.11      77.10        0.61   458.43   0.856
  sub113                    90.11       0.00       0.00       1.51      72.98      10.10      83.07        0.57   434.03   0.922
  sub114                    90.11       0.00       0.00       1.40      74.20       9.44      83.64        0.55   420.22   0.928
  sub115                    90.11       0.00       0.00       1.32      73.94       8.59      82.54        0.61   458.58   0.916
  sub116                    90.11       0.00       0.00       3.98      43.48      23.65      67.13        0.12    84.17   0.745
  sub117                    90.11       0.00       0.00       4.05      42.04      23.98      66.02        0.30   210.82   0.733
  

  ***********************
  LID Performance Summary
  ***********************

  --------------------------------------------------------------------------------------------------------------------
                                         Total      Evap     Infil   Surface    Drain    Initial     Final  Continuity
                                        Inflow      Loss      Loss   Outflow   Outflow   Storage   Storage       Error
  Subcatchment      LID Control             mm        mm        mm        mm        mm        mm        mm           %
  --------------------------------------------------------------------------------------------------------------------
  sub1              BioRententionCell     90.11      0.00      2.95      0.00      0.00     23.50    110.76       -0.09
  sub2              BioRententionCell     90.11      0.00      2.95      0.00      0.00     23.50    110.76       -0.09
  sub3              BioRententionCell     90.11      0.00      2.95      0.00      0.00     23.50    110.76       -0.09
  sub4              BioRententionCell     90.11      0.00      2.95      0.00      0.00     23.50    110.76       -0.09
  sub5              BioRententionCell     90.11      0.00      2.95      0.00      0.00     23.50    110.76       -0.09
  sub6              BioRententionCell     90.11      0.00      2.95      0.00      0.00     23.50    110.76       -0.09
  sub7              BioRententionCell     90.11      0.00      2.95      0.00      0.00     23.50    110.76       -0.09
  sub8              BioRententionCell     90.11      0.00      2.95      0.00      0.00     23.50    110.76       -0.09
  sub9              BioRententionCell     90.11      0.00      2.95      0.00      0.00     23.50    110.76       -0.09
  sub10             BioRententionCell     90.11      0.00      2.95      0.00      0.00     23.50    110.76       -0.09
  sub11             BioRententionCell     90.11      0.00      2.95      0.00      0.00     23.50    110.76       -0.09
  sub12             BioRententionCell     90.11      0.00      2.95      0.00      0.00     23.50    110.76       -0.09
  sub13             BioRententionCell     90.11      0.00      2.95      0.00      0.00     23.50    110.76       -0.09
  sub14             BioRententionCell     90.11      0.00      2.95      0.00      0.00     23.50    110.76       -0.09
  sub15             BioRententionCell     90.11      0.00      2.95      0.00      0.00     23.50    110.76       -0.09
  sub16             BioRententionCell     90.11      0.00      2.95      0.00      0.00     23.50    110.76       -0.09
  sub17             BioRententionCell     90.11      0.00      2.95      0.00      0.00     23.50    110.76       -0.09
  sub18             BioRententionCell     90.11      0.00      2.95      0.00      0.00     23.50    110.76       -0.09
  sub19             BioRententionCell     90.11      0.00      2.95      0.00      0.00     23.50    110.76       -0.09
  sub20             BioRententionCell     90.11      0.00      2.95      0.00      0.00     23.50    110.76       -0.09
  sub21             BioRententionCell     90.11      0.00      2.95      0.00      0.00     23.50    110.76       -0.09
  sub22             BioRententionCell     90.11      0.00      2.95      0.00      0.00     23.50    110.76       -0.09
  sub23             BioRententionCell     90.11      0.00      2.95      0.00      0.00     23.50    110.76       -0.09
  sub24             BioRententionCell     90.11      0.00      2.95      0.00      0.00     23.50    110.76       -0.09
  sub25             BioRententionCell     90.11      0.00      2.95      0.00      0.00     23.50    110.76       -0.09
  sub26             BioRententionCell     90.11      0.00      2.95      0.00      0.00     23.50    110.76       -0.09
  sub27             BioRententionCell     90.11      0.00      2.95      0.00      0.00     23.50    110.76       -0.09
  sub28             BioRententionCell     90.11      0.00      2.95      0.00      0.00     23.50    110.76       -0.09
  sub29             BioRententionCell     90.11      0.00      2.95      0.00      0.00     23.50    110.76       -0.09
  sub30             BioRententionCell     90.11      0.00      2.95      0.00      0.00     23.50    110.76       -0.09
  sub31             BioRententionCell     90.11      0.00      2.95      0.00      0.00     23.50    110.76       -0.09
  sub32             BioRententionCell     90.11      0.00      2.95      0.00      0.00     23.50    110.76       -0.09
  sub33             BioRententionCell     90.11      0.00      2.95      0.00      0.00     23.50    110.76       -0.09
  sub34             BioRententionCell     90.11      0.00      2.95      0.00      0.00     23.50    110.76       -0.09
  sub35             BioRententionCell     90.11      0.00      2.95      0.00      0.00     23.50    110.76       -0.09
  sub36             BioRententionCell     90.11      0.00      2.95      0.00      0.00     23.50    110.76       -0.09
  sub37             BioRententionCell     90.11      0.00      2.95      0.00      0.00     23.50    110.76       -0.09
  sub38             BioRententionCell     90.11      0.00      2.95      0.00      0.00     23.50    110.76       -0.09
  sub39             BioRententionCell     90.11      0.00      2.95      0.00      0.00     23.50    110.76       -0.09
  sub40             BioRententionCell     90.11      0.00      2.95      0.00      0.00     23.50    110.76       -0.09
  sub41             BioRententionCell     90.11      0.00      2.95      0.00      0.00     23.50    110.76       -0.09
  sub42             BioRententionCell     90.11      0.00      2.95      0.00      0.00     23.50    110.76       -0.09
  sub43             BioRententionCell     90.11      0.00      2.95      0.00      0.00     23.50    110.76       -0.09
  sub44             BioRententionCell     90.11      0.00      2.95      0.00      0.00     23.50    110.76       -0.09
  sub45             BioRententionCell     90.11      0.00      2.95      0.00      0.00     23.50    110.76       -0.09
  sub46             BioRententionCell     90.11      0.00      2.95      0.00      0.00     23.50    110.76       -0.09
  sub47             BioRententionCell     90.11      0.00      2.95      0.00      0.00     23.50    110.76       -0.09
  sub48             BioRententionCell     90.11      0.00      2.95      0.00      0.00     23.50    110.76       -0.09
  sub49             BioRententionCell     90.11      0.00      2.95      0.00      0.00     23.50    110.76       -0.09
  sub50             BioRententionCell     90.11      0.00      2.95      0.00      0.00     23.50    110.76       -0.09
  sub51             BioRententionCell     90.11      0.00      2.95      0.00      0.00     23.50    110.76       -0.09
  sub52             BioRententionCell     90.11      0.00      2.95      0.00      0.00     23.50    110.76       -0.09
  sub53             BioRententionCell     90.11      0.00      2.95      0.00      0.00     23.50    110.76       -0.09
  sub54             BioRententionCell     90.11      0.00      2.95      0.00      0.00     23.50    110.76       -0.09
  sub55             BioRententionCell     90.11      0.00      2.95      0.00      0.00     23.50    110.76       -0.09
  sub56             BioRententionCell     90.11      0.00      2.95      0.00      0.00     23.50    110.76       -0.09
  sub58             BioRententionCell     90.11      0.00      2.95      0.00      0.00     23.50    110.76       -0.09
  sub59             BioRententionCell     90.11      0.00      2.95      0.00      0.00     23.50    110.76       -0.09
  sub60             BioRententionCell     90.11      0.00      2.95      0.00      0.00     23.50    110.76       -0.09
  sub61             BioRententionCell     90.11      0.00      2.95      0.00      0.00     23.50    110.76       -0.09
  sub62             BioRententionCell     90.11      0.00      2.95      0.00      0.00     23.50    110.76       -0.09
  sub67             BioRententionCell     90.11      0.00      2.95      0.00      0.00     23.50    110.76       -0.09
  sub68             BioRententionCell     90.11      0.00      2.95      0.00      0.00     23.50    110.76       -0.09
  sub71             BioRententionCell     90.11      0.00      2.95      0.00      0.00     23.50    110.76       -0.09
  sub72             BioRententionCell     90.11      0.00      2.95      0.00      0.00     23.50    110.76       -0.09
  sub73             BioRententionCell     90.11      0.00      2.95      0.00      0.00     23.50    110.76       -0.09
  sub74             BioRententionCell     90.11      0.00      2.95      0.00      0.00     23.50    110.76       -0.09
  sub75             BioRententionCell     90.11      0.00      2.95      0.00      0.00     23.50    110.76       -0.09
  sub76             BioRententionCell     90.11      0.00      2.95      0.00      0.00     23.50    110.76       -0.09
  sub77             BioRententionCell     90.11      0.00      2.95      0.00      0.00     23.50    110.76       -0.09
  sub78             BioRententionCell     90.11      0.00      2.95      0.00      0.00     23.50    110.76       -0.09
  sub79             BioRententionCell     90.11      0.00      2.95      0.00      0.00     23.50    110.76       -0.09
  sub80             BioRententionCell     90.11      0.00      2.95      0.00      0.00     23.50    110.76       -0.09
  sub81             BioRententionCell     90.11      0.00      2.95      0.00      0.00     23.50    110.76       -0.09
  sub82             BioRententionCell     90.11      0.00      2.95      0.00      0.00     23.50    110.76       -0.09
  sub83             BioRententionCell     90.11      0.00      2.95      0.00      0.00     23.50    110.76       -0.09
  sub84             BioRententionCell     90.11      0.00      2.95      0.00      0.00     23.50    110.76       -0.09
  sub85             BioRententionCell     90.11      0.00      2.95      0.00      0.00     23.50    110.76       -0.09
  sub86             BioRententionCell     90.11      0.00      2.95      0.00      0.00     23.50    110.76       -0.09
  sub87             BioRententionCell     90.11      0.00      2.95      0.00      0.00     23.50    110.76       -0.09
  sub88             BioRententionCell     90.11      0.00      2.95      0.00      0.00     23.50    110.76       -0.09
  sub89             BioRententionCell     90.11      0.00      2.95      0.00      0.00     23.50    110.76       -0.09
  sub90             BioRententionCell     90.11      0.00      2.95      0.00      0.00     23.50    110.76       -0.09
  sub91             BioRententionCell     90.11      0.00      2.95      0.00      0.00     23.50    110.76       -0.09
  sub92             BioRententionCell     90.11      0.00      2.95      0.00      0.00     23.50    110.76       -0.09
  sub93             BioRententionCell     90.11      0.00      2.95      0.00      0.00     23.50    110.76       -0.09
  sub94             BioRententionCell     90.11      0.00      2.95      0.00      0.00     23.50    110.76       -0.09
  sub95             BioRententionCell     90.11      0.00      2.95      0.00      0.00     23.50    110.76       -0.09
  sub96             BioRententionCell     90.11      0.00      2.95      0.00      0.00     23.50    110.76       -0.09
  sub97             BioRententionCell     90.11      0.00      2.95      0.00      0.00     23.50    110.76       -0.09
  sub98             BioRententionCell     90.11      0.00      2.95      0.00      0.00     23.50    110.76       -0.09
  sub99             BioRententionCell     90.11      0.00      2.95      0.00      0.00     23.50    110.76       -0.09
  sub100            BioRententionCell     90.11      0.00      2.95      0.00      0.00     23.50    110.76       -0.09
  sub101            BioRententionCell     90.11      0.00      2.95      0.00      0.00     23.50    110.76       -0.09
  sub102            BioRententionCell     90.11      0.00      2.95      0.00      0.00     23.50    110.76       -0.09
  sub103            BioRententionCell     90.11      0.00      2.95      0.00      0.00     23.50    110.76       -0.09
  sub104            BioRententionCell     90.11      0.00      2.95      0.00      0.00     23.50    110.76       -0.09
  sub106            BioRententionCell     90.11      0.00      2.95      0.00      0.00     23.50    110.76       -0.09
  sub107            BioRententionCell     90.11      0.00      2.95      0.00      0.00     23.50    110.76       -0.09
  sub108            BioRententionCell     90.11      0.00      2.95      0.00      0.00     23.50    110.76       -0.09
  sub109            BioRententionCell     90.11      0.00      2.95      0.00      0.00     23.50    110.76       -0.09
  sub110            BioRententionCell     90.11      0.00      2.95      0.00      0.00     23.50    110.76       -0.09
  sub111            BioRententionCell     90.11      0.00      2.95      0.00      0.00     23.50    110.76       -0.09
  sub112            BioRententionCell     90.11      0.00      2.95      0.00      0.00     23.50    110.76       -0.09
  sub113            BioRententionCell     90.11      0.00      2.95      0.00      0.00     23.50    110.76       -0.09
  sub114            BioRententionCell     90.11      0.00      2.95      0.00      0.00     23.50    110.76       -0.09
  sub115            BioRententionCell     90.11      0.00      2.95      0.00      0.00     23.50    110.76       -0.09
  sub116            BioRententionCell     90.11      0.00      2.95      0.00      0.00     23.50    110.76       -0.09
  sub117            BioRententionCell     90.11      0.00      2.95      0.00      0.00     23.50    110.76       -0.09
  
  ******************
  Node Depth Summary
  ******************
  
  ---------------------------------------------------------------------------------
                                 Average  Maximum  Maximum  Time of Max    Reported
                                   Depth    Depth      HGL   Occurrence   Max Depth
  Node                 Type       Meters   Meters   Meters  days hr:min      Meters
  ---------------------------------------------------------------------------------
  WS02001211           JUNCTION     1.01     2.68     7.52     0  00:44        1.83
  WS02001212           JUNCTION     0.78     2.26     7.33     0  00:44        1.58
  WS02001213           JUNCTION     1.02     2.50     7.26     0  00:44        1.86
  WS02003069           JUNCTION     0.97     1.69     6.28     0  00:47        1.69
  WS02003072           JUNCTION     1.03     1.59     5.96     0  00:47        1.58
  WS02003073           JUNCTION     1.25     1.70     5.77     0  00:47        1.70
  WS02003076           JUNCTION     0.99     1.36     5.58     0  00:47        1.35
  WS02003060           JUNCTION     0.86     1.82     6.75     0  00:43        1.67
  WS02003066           JUNCTION     0.52     1.17     6.73     0  00:46        1.17
  WS02003059           JUNCTION     1.09     2.18     6.87     0  00:44        1.92
  WS02003115           JUNCTION     2.03     2.76     9.62     0  00:32        2.73
  WS02003116           JUNCTION     2.18     3.03     9.74     0  00:24        2.93
  WS02003118           JUNCTION     2.16     2.90     9.52     0  00:24        2.90
  WS02003215           JUNCTION     2.05     2.80     9.66     0  00:32        2.80
  WS02003110           JUNCTION     1.67     2.34     9.60     0  00:46        2.34
  WS02003111           JUNCTION     1.79     2.35     9.44     0  00:32        2.35
  WS02005155           JUNCTION     1.65     2.44     9.75     0  00:46        2.44
  WS02005154           JUNCTION     1.41     2.33     9.96     0  00:46        2.32
  WS02005193           JUNCTION     1.46     3.22    11.04     0  00:42        3.01
  WS02005196           JUNCTION     1.43     3.31    11.16     0  00:28        2.97
  WS02003067           JUNCTION     0.84     1.48     6.80     0  00:47        1.47
  WS02004401           JUNCTION     1.48     2.54     8.54     0  00:45        2.47
  WS02004402           JUNCTION     1.48     2.56     8.52     0  00:45        2.49
  WS02004403           JUNCTION     1.46     2.55     8.48     0  00:45        2.49
  WS02004404           JUNCTION     1.51     2.60     8.45     0  00:45        2.55
  WS02004406           JUNCTION     1.45     2.55     8.38     0  00:45        2.50
  WS02004409           JUNCTION     1.22     2.35     8.12     0  00:45        2.29
  WS02004410           JUNCTION     1.12     2.10     7.82     0  00:46        2.09
  WS02004411           JUNCTION     1.03     1.89     7.57     0  00:46        1.87
  WS02004412           JUNCTION     0.94     1.65     7.29     0  00:47        1.62
  WS02004413           JUNCTION     0.97     1.56     7.03     0  00:47        1.53
  WS02004405           JUNCTION     1.49     2.58     8.43     0  00:45        2.53
  WS02006109           JUNCTION     1.95     2.64     9.26     0  00:40        2.64
  WS02006110           JUNCTION     1.76     2.48     9.07     0  00:53        2.48
  WS02006111           JUNCTION     1.17     2.00     8.71     0  00:45        1.99
  WS02006112           JUNCTION     1.78     2.68     8.56     0  00:00        2.68
  WS02006113           JUNCTION     1.24     2.00     8.90     0  00:45        1.99
  WS02006115           JUNCTION     1.45     2.43     8.57     0  00:45        2.39
  WS02006116           JUNCTION     1.50     2.52     8.56     0  00:45        2.46
  WS02006230           JUNCTION     2.03     2.65     9.39     0  00:36        2.65
  WS02006231           JUNCTION     1.62     2.19     9.31     0  00:58        2.19
  WS02006232           JUNCTION     1.67     2.18     9.22     0  00:36        2.18
  WS02006234           JUNCTION     1.50     1.96     9.12     0  00:35        1.96
  WS02006235           JUNCTION     1.48     1.94     9.11     0  00:32        1.93
  WS02006238           JUNCTION     1.49     1.95     9.09     0  00:32        1.93
  WS02006240           JUNCTION     1.28     1.64     8.93     0  00:32        1.62
  WS02006242           JUNCTION     1.25     1.55     8.82     0  00:26        1.55
  WS02006243           JUNCTION     1.10     1.48     8.90     0  00:27        1.37
  WS02006245           JUNCTION     1.03     1.35     8.84     0  00:27        1.27
  WS02006247           JUNCTION     1.01     1.34     8.84     0  00:27        1.22
  WS02006248           JUNCTION     0.91     1.10     8.69     0  00:27        1.10
  WS02006249           JUNCTION     0.92     1.09     8.69     0  00:27        1.09
  WS02006239           JUNCTION     1.39     1.80     9.01     0  00:32        1.78
  WS02006251           JUNCTION     1.36     2.21     9.88     0  00:42        2.17
  WS02006252           JUNCTION     0.92     1.50     9.74     0  00:42        1.50
  WS02006253           JUNCTION     1.63     3.28    10.93     0  00:42        3.18
  WS02006256           JUNCTION     1.88     2.35     9.28     0  00:17        2.35
  WS02004138           JUNCTION     0.12     0.14     7.39     0  00:44        0.14
  WS02004139           JUNCTION     0.95     2.65     7.56     0  00:44        1.77
  WS02004407           JUNCTION     0.86     2.09     8.40     0  00:45        1.96
  WS02006228           JUNCTION     2.17     3.03     9.68     0  00:44        3.03
  WS02006229           JUNCTION     2.27     3.23     9.92     0  00:44        3.22
  WS02006280           JUNCTION     0.98     1.75    10.02     0  00:55        1.74
  WS02006284           JUNCTION     1.15     1.95    10.35     0  00:44        1.94
  WS02006287           JUNCTION     0.90     1.75    10.70     0  00:44        1.73
  WS02003091           JUNCTION     2.91     4.43    10.23     0  00:00        3.91
  WS02003203           JUNCTION     2.85     3.83     9.82     0  00:00        3.83
  WS6145               JUNCTION     0.45     2.33    10.43     0  00:45        2.33
  WS6147               JUNCTION     0.38     2.25    10.53     0  00:45        2.17
  WS6150               JUNCTION     0.37     2.23    10.56     0  00:45        2.14
  WS6152               JUNCTION     0.38     2.20    10.54     0  00:45        2.14
  WS6155               JUNCTION     0.35     2.10    10.50     0  00:45        2.10
  WS6156               JUNCTION     0.33     2.05    10.52     0  00:45        2.05
  WS6136               JUNCTION     0.40     1.90    10.85     0  00:46        1.90
  WS6140               JUNCTION     0.50     2.47    10.40     0  00:47        2.45
  WS6142               JUNCTION     0.45     2.34    10.42     0  00:47        2.33
  WS6325               JUNCTION     0.73     2.74    10.39     0  00:47        2.72
  WS6327               JUNCTION     0.58     2.58    10.40     0  00:47        2.57
  WS6329               JUNCTION     0.54     2.52    10.40     0  00:47        2.50
  WS6332               JUNCTION     0.46     2.51    10.54     0  00:44        2.36
  WS6158               JUNCTION     0.30     2.05    10.59     0  00:45        2.05
  WS6335               JUNCTION     0.45     2.59    10.66     0  00:44        2.33
  WS6338               JUNCTION     0.40     2.55    10.75     0  00:44        2.20
  WS6340               JUNCTION     0.35     2.50    10.84     0  00:44        2.07
  WS6342               JUNCTION     0.28     2.50    11.10     0  00:44        1.81
  WS6135               JUNCTION     0.88     2.89    10.38     0  00:47        2.88
  WS6396               JUNCTION     0.56     2.02     9.57     0  00:47        2.01
  WS6399               JUNCTION     0.35     1.37     8.81     0  00:47        1.36
  WS02003082           JUNCTION     1.40     1.93     7.00     0  00:49        1.92
  WS02003077           JUNCTION     0.48     0.85     5.85     0  00:46        0.84
  WS02003080           JUNCTION     0.91     1.30     6.24     0  00:46        1.29
  WS02003083           JUNCTION     1.79     2.41     7.44     0  00:48        2.40
  WS02003084           JUNCTION     1.93     2.60     7.70     0  00:49        2.59
  WS02003085           JUNCTION     2.02     2.72     7.89     0  00:47        2.71
  WS02003086           JUNCTION     2.26     3.02     8.22     0  00:51        3.01
  WS02003087           JUNCTION     2.53     3.36     8.57     0  00:46        3.35
  WS02003088           JUNCTION     2.73     4.14     9.43     0  00:00        4.07
  WS02003089           JUNCTION     2.86     4.34     9.80     0  00:00        4.02
  WS02003090           JUNCTION     3.07     4.12     9.55     0  00:00        4.05
  WS02003081           JUNCTION     1.14     1.61     6.66     0  00:46        1.61
  WS02003122           JUNCTION     2.35     3.11     9.48     0  00:49        3.10
  WS02003187           JUNCTION     2.37     3.11     9.44     0  00:23        3.11
  WS02003188           JUNCTION     2.34     2.97     9.23     0  00:23        2.97
  WS02003190           JUNCTION     2.32     2.84     9.04     0  00:23        2.84
  WS02003193           JUNCTION     2.31     2.85     9.09     0  00:23        2.85
  WS02003195           JUNCTION     2.34     2.93     9.18     0  00:24        2.93
  WS02003196           JUNCTION     2.45     3.12     9.30     0  00:46        3.11
  WS02003198           JUNCTION     2.48     3.21     9.40     0  00:46        3.20
  WS02003200           JUNCTION     2.24     2.98     9.42     0  00:30        2.93
  WS02003201           JUNCTION     2.51     3.22     9.36     0  00:30        3.22
  WS02003202           JUNCTION     2.66     4.17    10.23     0  00:00        3.48
  WS02004041           JUNCTION     0.66     0.98     5.34     0  00:47        0.98
  WSA6400              JUNCTION     1.17     2.42     8.26     0  00:46        2.40
  WS6400               JUNCTION     0.51     1.70     8.36     0  00:46        1.68
  WSF208               JUNCTION     0.86     1.95     8.04     0  00:45        1.93
  WSF207               JUNCTION     0.75     1.70     7.83     0  00:46        1.68
  WSF206               JUNCTION     0.83     1.74     7.68     0  00:47        1.72
  WSF205               JUNCTION     0.76     1.61     7.51     0  00:46        1.61
  WSF204               JUNCTION     1.29     2.17     7.33     0  00:46        2.16
  WSF203               JUNCTION     0.66     1.37     7.08     0  00:47        1.36
  WSF202               JUNCTION     0.58     1.20     6.93     0  00:46        1.20
  WSF201               JUNCTION     0.50     1.05     6.77     0  00:47        1.04
  WSF200               JUNCTION     0.65     1.46     6.69     0  00:46        1.45
  HS02004901           JUNCTION     0.73     1.42    11.24     0  00:40        1.42
  HS02004881           JUNCTION     0.60     2.15    11.18     0  00:42        1.91
  HS02004876           JUNCTION     0.73     2.19    11.22     0  00:42        2.16
  HS02004870           JUNCTION     0.62     2.10    11.39     0  00:42        2.04
  HS02004862           JUNCTION     0.63     2.00    11.38     0  00:42        2.00
  HS02004856           JUNCTION     0.66     2.07    11.50     0  00:42        2.07
  HS02004852           JUNCTION     0.60     2.12    11.63     0  00:42        2.00
  HS02004848           JUNCTION     0.58     2.07    11.67     0  00:42        1.92
  HS02004842           JUNCTION     0.89     2.22    11.49     0  00:42        2.22
  HS02004837           JUNCTION     0.60     1.97    11.55     0  00:42        1.92
  HS02004830           JUNCTION     0.68     2.03    11.50     0  00:42        1.99
  HS02004824           JUNCTION     0.72     2.01    11.41     0  00:42        2.01
  HS02004817           JUNCTION     1.20     2.44    11.29     0  00:42        2.41
  HS02004807           JUNCTION     0.88     1.92    11.09     0  00:42        1.92
  HS02004802           JUNCTION     0.88     1.81    10.94     0  00:44        1.80
  HS02004799           JUNCTION     0.97     1.76    10.97     0  00:40        1.76
  HS02004792           JUNCTION     0.76     1.60    11.12     0  00:38        1.60
  HS02004788           JUNCTION     0.58     1.42    11.32     0  00:40        1.42
  HS02004785           JUNCTION     0.62     1.49    11.39     0  00:40        1.40
  HS02004777           JUNCTION     0.74     1.48    11.28     0  00:40        1.48
  HS02004770           JUNCTION     0.72     1.42    11.25     0  00:40        1.42
  HS02004480           JUNCTION     0.86     1.67    10.91     0  00:42        1.64
  HS02004479           JUNCTION     0.90     1.69    10.89     0  00:41        1.67
  HS02004478           JUNCTION     0.76     1.59    10.82     0  00:44        1.59
  HS02004053           JUNCTION     0.30     1.90    10.67     0  00:45        1.09
  HS02004052           JUNCTION     0.38     1.50    11.15     0  00:44        1.38
  HS02004049           JUNCTION     0.22     1.01    11.69     0  00:45        0.86
  HS02004048           JUNCTION     0.51     1.70    12.60     0  00:43        1.70
  HS02004046           JUNCTION     0.47     1.80    13.52     0  00:46        1.80
  HS02004043           JUNCTION     0.27     2.03    14.73     0  00:47        2.02
  HS02004041           JUNCTION     0.14     0.55    15.99     0  00:47        0.54
  HS02004038           JUNCTION     0.14     0.38    19.06     0  00:47        0.38
  HS02004036           JUNCTION     0.00     0.00    22.46     0  00:00        0.00
  HS02004034           JUNCTION     0.00     0.00    26.83     0  00:00        0.00
  HS02004028           JUNCTION     0.19     0.51    37.36     0  00:44        0.51
  HS02004027           JUNCTION     0.15     0.34    36.47     0  00:44        0.34
  HS02004026           JUNCTION     0.16     0.35    35.75     0  00:44        0.34
  HS02004024           JUNCTION     0.16     0.42    34.63     0  00:44        0.41
  HS02004022           JUNCTION     0.23     0.80    33.84     0  00:43        0.80
  HS02004021           JUNCTION     0.27     0.81    32.54     0  00:42        0.81
  HS02004019           JUNCTION     0.33     0.80    31.76     0  00:41        0.80
  HS02004018           JUNCTION     0.22     0.60    33.81     0  00:43        0.60
  HS02004017           JUNCTION     0.21     0.53    34.37     0  00:44        0.53
  HS02004013           JUNCTION     0.13     0.45    35.58     0  00:47        0.45
  HS02004010           JUNCTION     0.05     0.17    38.04     0  00:47        0.17
  HS02003174           JUNCTION     0.19     0.47     6.01     0  00:48        0.47
  HS02003171           JUNCTION     0.21     0.52     6.20     0  00:47        0.52
  HS02003170           JUNCTION     0.25     0.49     6.94     0  00:47        0.49
  HS02003168           JUNCTION     0.13     0.33     6.82     0  00:47        0.33
  HS02003166           JUNCTION     0.24     0.50     6.97     0  00:47        0.50
  HS02003162           JUNCTION     0.22     0.42    30.67     0  00:41        0.42
  HS02003160           JUNCTION     0.17     0.38    28.44     0  00:46        0.38
  HS02003150           JUNCTION     0.18     0.41    26.43     0  00:46        0.41
  HS02003148           JUNCTION     0.20     0.53    22.27     0  00:46        0.53
  HS02003145           JUNCTION     0.26     0.81    14.68     0  00:44        0.81
  HS02003143           JUNCTION     0.38     0.80    13.27     0  00:38        0.80
  HS02003138           JUNCTION     0.24     0.55     7.05     0  01:37        0.55
  HS02003136           JUNCTION     1.47     2.28    10.00     0  00:00        2.28
  HS02003125           JUNCTION     1.58     2.35     9.80     0  00:32        2.29
  HS02003122           JUNCTION     1.62     2.49     9.92     0  00:32        2.41
  HS02003119           JUNCTION     1.38     2.60    10.32     0  00:32        2.22
  HS02003116           JUNCTION     1.06     2.43    10.55     0  00:32        1.84
  HS02003111           JUNCTION     0.47     0.94     9.95     0  00:47        0.93
  HS02003108           JUNCTION     0.38     0.99    10.10     0  00:46        0.93
  HS02003100           JUNCTION     0.28     0.97    10.20     0  00:46        0.88
  HS02003088           JUNCTION     0.23     1.01    10.31     0  00:46        0.89
  HS02003084           JUNCTION     0.11     0.92    10.36     0  00:46        0.78
  HS02003079           JUNCTION     0.07     0.89    10.40     0  00:46        0.71
  HS02003077           JUNCTION     0.02     0.51    10.25     0  00:47        0.50
  HS02003065           JUNCTION     0.69     1.66    10.89     0  00:47        1.66
  HS02003056           JUNCTION     0.72     1.75    10.70     0  00:46        1.75
  HS02003053           JUNCTION     0.51     1.66    10.96     0  00:36        1.63
  HS02003042           JUNCTION     0.36     1.69    11.35     0  00:37        1.40
  HS02003039           JUNCTION     0.39     1.75    11.40     0  00:43        1.48
  HS02003036           JUNCTION     0.22     1.41    11.47     0  00:43        1.24
  HS02003028           JUNCTION     0.34     1.40    11.14     0  00:43        1.40
  HS02003021           JUNCTION     0.36     1.55    10.92     0  00:43        1.49
  HS02003018           JUNCTION     0.37     1.48    10.69     0  00:43        1.48
  HS02003017           JUNCTION     0.37     1.48    10.64     0  00:43        1.48
  HS02003013           JUNCTION     0.37     1.47    10.52     0  00:43        1.44
  HS02003010           JUNCTION     0.39     1.42    10.22     0  00:43        1.32
  HS02003007           JUNCTION     0.34     1.19     9.81     0  00:43        1.11
  HS02003004           JUNCTION     0.42     1.02     9.34     0  00:43        0.98
  HS02003001           JUNCTION     0.12     0.30     8.60     0  00:47        0.30
  YS02001738           JUNCTION     0.00     0.00     8.89     0  00:00        0.00
  YS02001739           JUNCTION     0.00     0.00     8.37     0  00:00        0.00
  YS02001742           JUNCTION     0.00     0.00     8.49     0  00:00        0.00
  YS02001745           JUNCTION     0.15     0.40     7.92     0  00:47        0.39
  YS02001748           JUNCTION     0.19     0.91     7.98     0  00:48        0.87
  YS02001751           JUNCTION     0.21     1.96     8.84     0  00:47        1.05
  YS02001754           JUNCTION     0.25     2.20     8.81     0  00:46        1.28
  YS02001762           JUNCTION     0.45     2.15     8.55     0  00:46        1.74
  YS02001765           JUNCTION     0.44     2.10     8.55     0  00:46        1.74
  YS02001767           JUNCTION     0.45     2.03     8.52     0  00:46        1.78
  YS02001770           JUNCTION     0.52     1.95     8.44     0  00:46        1.89
  YS02001774           JUNCTION     0.59     2.05     8.47     0  00:46        1.96
  YS02001779           JUNCTION     0.34     1.68     8.37     0  00:46        1.68
  YS02001882           JUNCTION     0.79     1.83     8.55     0  00:41        1.65
  YS02001884           JUNCTION     0.89     1.92     8.53     0  00:41        1.76
  YS02001759           JUNCTION     0.45     2.21     8.57     0  00:46        1.71
  YS02001887           JUNCTION     0.96     1.92     8.45     0  00:41        1.84
  YS02001890           JUNCTION     0.99     1.81     8.32     0  00:41        1.81
  YS02001898           JUNCTION     0.76     1.70     8.43     0  00:41        1.56
  YS02001901           JUNCTION     0.86     1.70     8.30     0  00:41        1.67
  YS02001904           JUNCTION     0.84     1.65     8.28     0  00:41        1.63
  YS02001907           JUNCTION     1.16     1.96     8.25     0  00:42        1.96
  YS02001910           JUNCTION     0.99     2.02     8.52     0  00:45        2.00
  YS02001915           JUNCTION     0.83     2.00     8.72     0  00:41        1.99
  YS02001918           JUNCTION     0.56     1.81     8.88     0  00:42        1.80
  YS02001920           JUNCTION     0.65     2.12     9.13     0  00:44        2.09
  YS02001923           JUNCTION     0.47     2.03     9.29     0  00:44        2.01
  YS02001926           JUNCTION     0.46     1.90     9.35     0  00:44        1.83
  YS02001929           JUNCTION     0.32     1.78     9.47     0  00:44        1.57
  YS02001932           JUNCTION     0.22     1.77     9.57     0  00:44        1.33
  YS02001935           JUNCTION     0.17     1.75     9.68     0  00:44        0.96
  YS02001757           JUNCTION     0.43     2.10     8.36     0  00:46        1.58
  YS02001895           JUNCTION     0.75     1.72     8.47     0  00:41        1.56
  YS02005679           JUNCTION     0.00     0.00    10.24     0  00:00        0.00
  YS02005559           JUNCTION     0.09     0.18    10.13     0  00:49        0.18
  YS02005651           JUNCTION     0.07     0.18    10.95     0  00:47        0.18
  YS02005670           JUNCTION     0.08     0.21    10.66     0  00:47        0.21
  YS02005547           JUNCTION     0.05     0.14    10.67     0  00:46        0.13
  YS02005549           JUNCTION     0.07     0.20    11.11     0  00:46        0.20
  YS02005550           JUNCTION     0.09     0.23    10.85     0  00:47        0.23
  YS02005551           JUNCTION     0.05     0.13    10.50     0  00:47        0.13
  YS02005553           JUNCTION     0.11     0.25    10.61     0  00:48        0.25
  YS02005554           JUNCTION     0.06     0.12    10.36     0  00:48        0.12
  YS02005556           JUNCTION     0.11     0.24    10.30     0  00:47        0.24
  YS02005557           JUNCTION     0.06     0.13    10.09     0  00:48        0.12
  YS02005560           JUNCTION     0.07     0.14     9.88     0  00:49        0.14
  YS02005562           JUNCTION     0.10     0.22     9.95     0  00:48        0.22
  YS02005563           JUNCTION     0.06     0.12     9.78     0  00:48        0.12
  YS02005565           JUNCTION     0.09     0.18     9.89     0  00:48        0.18
  YS02005566           JUNCTION     0.08     0.15     9.55     0  00:48        0.15
  YS02005568           JUNCTION     0.11     0.24     9.74     0  00:48        0.24
  YS02005569           JUNCTION     0.09     0.17     9.50     0  00:48        0.17
  YS02005598           JUNCTION     0.23     1.07    10.91     0  00:43        1.07
  YS02005600           JUNCTION     0.22     1.02    10.68     0  00:43        1.02
  YS02005602           JUNCTION     0.50     2.15    10.43     0  00:43        2.15
  YS02005603           JUNCTION     0.16     1.25     9.38     0  00:43        0.58
  YS02005609           JUNCTION     0.08     0.20     9.09     0  00:47        0.20
  YS02005653           JUNCTION     0.12     0.71    11.68     0  00:45        0.71
  YS02005654           JUNCTION     0.13     0.63    11.38     0  00:45        0.55
  YS02005655           JUNCTION     0.05     0.14    10.78     0  00:47        0.14
  YS02005595           JUNCTION     0.32     1.36    11.04     0  00:42        1.36
  YS02005658           JUNCTION     0.10     0.49    11.39     0  00:46        0.37
  YS02005659           JUNCTION     0.06     0.14    10.80     0  00:47        0.14
  YS02005661           JUNCTION     0.14     0.57    11.28     0  00:46        0.57
  YS02005662           JUNCTION     0.05     0.13    10.75     0  00:47        0.13
  YS02005664           JUNCTION     0.14     0.53    11.11     0  00:47        0.53
  YS02005665           JUNCTION     0.05     0.12    10.68     0  00:47        0.12
  YS02005668           JUNCTION     0.05     0.13    10.29     0  00:47        0.13
  YS02005667           JUNCTION     0.28     0.75    10.76     0  00:46        0.74
  YS02005571           JUNCTION     0.16     0.40     9.88     0  00:46        0.38
  YS02005572           JUNCTION     0.11     0.22     9.58     0  00:49        0.22
  YS02005576           JUNCTION     0.10     0.21     9.96     0  00:49        0.21
  YS02005577           JUNCTION     0.09     0.19     9.67     0  00:49        0.19
  YS02005579           JUNCTION     0.19     0.59    10.22     0  00:48        0.59
  YS02005580           JUNCTION     0.11     0.28     9.81     0  00:50        0.28
  YS02005582           JUNCTION     0.27     0.86    10.94     0  00:45        0.86
  YS02005583           JUNCTION     0.14     0.73    10.72     0  00:45        0.41
  YS02005612           JUNCTION     0.40     1.35     9.48     0  00:47        1.35
  YS02005615           JUNCTION     0.05     0.14    11.63     0  00:46        0.14
  YS02005616           JUNCTION     0.04     0.12    10.94     0  00:46        0.11
  YS02005618           JUNCTION     0.08     0.23    11.09     0  00:46        0.23
  YS02005619           JUNCTION     0.05     0.14    10.69     0  00:46        0.14
  YS02005621           JUNCTION     0.09     0.27    11.38     0  00:46        0.27
  YS02005622           JUNCTION     0.04     0.11    11.08     0  00:46        0.11
  YS02005625           JUNCTION     0.04     0.10    11.11     0  00:46        0.10
  YS02005627           JUNCTION     0.11     0.45    11.38     0  00:45        0.37
  YS02005628           JUNCTION     0.04     0.11    11.01     0  00:46        0.11
  YS02005630           JUNCTION     0.10     0.43    11.50     0  00:46        0.37
  YS02005631           JUNCTION     0.05     0.13    11.00     0  00:47        0.13
  YS02005633           JUNCTION     0.09     0.29    11.42     0  00:46        0.29
  YS02005634           JUNCTION     0.05     0.14    10.97     0  00:47        0.14
  YS02005636           JUNCTION     0.11     0.55    11.54     0  00:45        0.48
  YS02005637           JUNCTION     0.06     0.16    10.92     0  00:47        0.16
  YS02005639           JUNCTION     0.10     0.45    11.08     0  00:46        0.37
  YS02005640           JUNCTION     0.06     0.16    10.48     0  00:47        0.16
  YS02005642           JUNCTION     0.08     0.22    11.04     0  00:47        0.22
  YS02005644           JUNCTION     0.16     0.87    11.98     0  00:46        0.87
  YS02005645           JUNCTION     0.08     0.22    11.03     0  00:46        0.22
  YS02005647           JUNCTION     0.23     1.03    11.92     0  00:45        1.03
  YS02005648           JUNCTION     0.09     0.23    11.02     0  00:45        0.23
  YS02005650           JUNCTION     0.14     0.62    11.51     0  00:46        0.62
  YS02005671           JUNCTION     0.04     0.10    10.32     0  00:47        0.10
  YS02005673           JUNCTION     0.08     0.22    10.58     0  00:47        0.22
  YS02005674           JUNCTION     0.05     0.14    10.03     0  00:47        0.14
  YS02005676           JUNCTION     0.00     0.00    10.24     0  00:00        0.00
  YS02005680           JUNCTION     0.05     0.14    10.24     0  00:47        0.14
  YS02005682           JUNCTION     0.00     0.00    10.06     0  00:00        0.00
  YS02005683           JUNCTION     0.03     0.08     9.98     0  00:47        0.08
  YS02005376           JUNCTION     0.72     1.01    11.10     0  00:29        1.01
  YS02005378           JUNCTION     1.25     1.62    11.14     0  01:01        1.62
  YS02005381           JUNCTION     1.15     1.57    11.20     0  00:29        1.57
  YS02005624           JUNCTION     0.22     0.49    11.37     0  00:46        0.48
  YS02005384           JUNCTION     0.37     0.78    10.43     0  00:29        0.53
  YS02005677           JUNCTION     0.06     0.15    10.23     0  00:47        0.15
  YSB1105              JUNCTION     0.27     0.55    10.03     0  00:45        0.53
  YSB1106              JUNCTION     0.28     1.91    11.74     0  00:45        0.81
  YSB1109              JUNCTION     0.35     1.85    11.79     0  00:45        1.07
  YSB1112              JUNCTION     0.36     1.90    12.04     0  00:45        1.30
  YSB1115              JUNCTION     0.33     1.90    12.20     0  00:45        1.30
  YSB1118              JUNCTION     0.36     1.80    12.34     0  00:45        1.44
  YSB1121              JUNCTION     0.43     1.70    12.37     0  00:45        1.70
  YSB1124              JUNCTION     0.29     1.60    12.43     0  00:45        1.55
  YSB1128              JUNCTION     0.45     1.85    12.43     0  00:41        1.85
  YSB1132              JUNCTION     0.50     1.90    12.35     0  00:41        1.85
  YSB1228              JUNCTION     0.06     0.16    11.00     0  00:46        0.16
  YSB1202              JUNCTION     0.85     1.50    12.39     0  00:39        1.46
  YSB1135              JUNCTION     0.62     2.00    12.26     0  00:41        1.92
  YSB1138              JUNCTION     0.71     1.90    12.07     0  00:41        1.90
  YSB1141              JUNCTION     0.75     2.00    11.82     0  00:41        1.88
  YSB1145              JUNCTION     0.76     1.99    11.69     0  00:41        1.86
  YSB1148              JUNCTION     0.83     2.00    11.50     0  00:41        1.89
  YSB1151              JUNCTION     1.01     2.08    11.30     0  00:41        2.00
  YSB1154              JUNCTION     1.15     2.10    11.16     0  00:41        2.10
  YSB1198              JUNCTION     0.22     1.60    12.39     0  00:42        1.58
  YSB1192              JUNCTION     0.42     1.90    12.17     0  00:41        1.90
  YSB6556              JUNCTION     0.99     1.80    10.97     0  00:41        1.80
  YSB1205              JUNCTION     1.03     1.65    12.35     0  00:39        1.65
  YSB1209              JUNCTION     1.00     1.65    12.22     0  00:39        1.65
  YSB1212              JUNCTION     0.90     1.60    12.13     0  00:39        1.60
  YSB1215              JUNCTION     0.91     1.70    12.05     0  00:39        1.69
  YSB1218              JUNCTION     0.90     1.75    11.94     0  00:45        1.75
  YSB1221              JUNCTION     0.86     1.72    11.69     0  00:39        1.58
  YSB1224              JUNCTION     0.77     1.33    11.18     0  00:56        1.33
  YSB1195              JUNCTION     0.37     1.90    12.28     0  00:41        1.90
  YSB1189              JUNCTION     0.52     1.80    11.96     0  00:41        1.80
  YSB1186              JUNCTION     0.58     1.94    11.81     0  00:42        1.92
  YSB1183              JUNCTION     0.71     2.05    11.64     0  00:42        2.01
  YSB1180              JUNCTION     0.74     1.95    11.46     0  00:42        1.90
  YSB1177              JUNCTION     0.99     2.05    11.24     0  00:42        2.03
  YSB1174              JUNCTION     1.04     1.95    11.06     0  00:42        1.95
  YSB1171              JUNCTION     1.21     1.95    10.85     0  00:40        1.95
  YS02006553           JUNCTION     1.16     2.03     8.32     0  00:42        1.99
  YS02006561           JUNCTION     0.42     1.29     7.95     0  00:42        0.94
  YS02006562           JUNCTION     0.93     1.92     8.43     0  00:42        1.80
  YS02006556           JUNCTION     1.13     2.08     8.39     0  00:42        1.98
  YS02006558           JUNCTION     1.17     2.15     8.42     0  00:42        2.04
  YS6132               JUNCTION     0.58     2.65     9.98     0  00:45        1.60
  YS6137               JUNCTION     0.30     1.87     9.66     0  00:51        1.54
  YS6189               JUNCTION     0.41     1.98     9.77     0  00:46        1.81
  YS6184               JUNCTION     0.41     2.22    10.11     0  00:46        2.06
  YS6179               JUNCTION     0.35     2.34    10.32     0  00:46        2.08
  YS6176               JUNCTION     0.26     2.31    10.51     0  00:46        1.93
  YS6171               JUNCTION     0.27     2.10    10.51     0  00:46        1.92
  YS6168               JUNCTION     0.29     2.00    10.51     0  00:46        2.00
  YS6164               JUNCTION     0.12     1.90    10.63     0  00:46        1.90
  YS6162               JUNCTION     0.17     2.10    10.75     0  00:46        1.98
  YS6187               JUNCTION     0.45     2.08     9.86     0  00:46        1.92
  YS6363               JUNCTION     0.35     2.22    10.01     0  00:45        1.39
  YS6360               JUNCTION     0.47     2.24    10.04     0  00:51        1.62
  YS6354               JUNCTION     0.46     2.42    10.57     0  00:51        2.04
  YS6351               JUNCTION     0.55     2.48    10.69     0  00:51        2.33
  YS6350               JUNCTION     0.61     2.50    10.72     0  00:45        2.50
  YS6348               JUNCTION     0.57     2.45    10.85     0  00:44        2.45
  YS6344               JUNCTION     0.39     2.30    10.89     0  00:53        2.26
  YS6375               JUNCTION     0.09     0.32     8.74     0  00:47        0.32
  YS6377               JUNCTION     0.15     0.38     8.74     0  00:47        0.38
  YS6381               JUNCTION     0.17     0.44     8.57     0  00:47        0.44
  YS6386               JUNCTION     0.19     0.51     8.49     0  00:47        0.51
  YS6390               JUNCTION     0.41     0.63     8.32     0  00:47        0.63
  YS6394               JUNCTION     0.11     0.26     8.18     0  00:48        0.26
  YS6404               JUNCTION     0.54     3.00    10.23     0  00:45        2.52
  YS6401               JUNCTION     0.18     0.41     7.62     0  00:51        0.41
  YS02004319           JUNCTION     0.31     1.18    20.80     0  00:41        1.18
  YS02004320           JUNCTION     0.00     0.00    22.64     0  00:58        0.00
  YS02004321           JUNCTION     0.00     0.00    26.80     0  00:56        0.00
  YS02004307           JUNCTION     0.16     0.52    11.05     0  00:46        0.52
  YS02004309           JUNCTION     0.74     1.55    13.07     0  00:34        1.55
  YS02004312           JUNCTION     0.48     1.48    14.91     0  00:39        1.48
  YS02004314           JUNCTION     0.35     1.28    16.99     0  00:40        1.28
  YS02004316           JUNCTION     0.36     1.36    19.13     0  00:41        1.36
  YS02001783           JUNCTION     0.64     1.55     7.69     0  00:42        1.26
  YS02001784           JUNCTION     0.62     1.30     7.37     0  00:42        1.14
  YS02001786           JUNCTION     0.50     0.99     7.02     0  00:42        0.89
  YS02001788           JUNCTION     0.37     0.62     6.60     0  00:46        0.62
  YS02001790           JUNCTION     0.42     0.72     6.37     0  00:46        0.72
  YS02001791           JUNCTION     0.26     0.44     5.91     0  00:46        0.44
  YS02001793           JUNCTION     0.14     0.29     5.12     0  00:44        0.28
  YS02003309           JUNCTION     0.67     1.21     9.77     0  00:27        1.04
  YS02003306           JUNCTION     0.78     1.16     9.60     0  00:27        1.16
  YS02003269           JUNCTION     0.14     0.17     7.76     0  00:41        0.17
  YS02003272           JUNCTION     0.40     1.37     9.10     0  00:28        0.59
  YS02003278           JUNCTION     0.79     1.25     9.16     0  00:28        1.21
  YS02003281           JUNCTION     0.89     1.39     9.47     0  00:41        1.39
  YS02003284           JUNCTION     0.97     1.40     9.41     0  00:28        1.40
  YS02003287           JUNCTION     0.92     1.27     9.34     0  00:28        1.27
  YS02003290           JUNCTION     0.78     1.12     9.41     0  00:28        1.11
  YS02003294           JUNCTION     0.93     1.24     9.42     0  00:28        1.24
  YS02003275           JUNCTION     0.59     1.19     9.10     0  00:28        0.91
  YS02003297           JUNCTION     0.91     1.22     9.43     0  00:28        1.22
  YS02003300           JUNCTION     0.85     1.15     9.42     0  00:27        1.15
  YS02003303           JUNCTION     0.84     1.14     9.46     0  00:27        1.14
  YSB1227              JUNCTION     0.01     0.10    11.00     0  00:46        0.10
  CaochengRainPumpOutfall1 OUTFALL      0.00     0.00     6.00     0  00:00        0.00
  JiankangRainPumpOutfall2 OUTFALL      0.00     0.00     6.00     0  00:00        0.00
  JiankangRainPumpOutfall1 OUTFALL      0.00     0.00     6.00     0  00:00        0.00
  CaochengRainPumpOutfall2 OUTFALL      0.00     0.00     6.00     0  00:00        0.00
  YS02005684           OUTFALL      0.03     0.08     8.49     0  00:47        0.08
  YS02005681           OUTFALL      0.05     0.13     9.35     0  00:47        0.13
  YS02005678           OUTFALL      0.06     0.15     8.68     0  00:47        0.15
  YS02005675           OUTFALL      0.05     0.14     8.68     0  00:47        0.14
  YS02005672           OUTFALL      0.04     0.10     8.44     0  00:47        0.10
  YS02005669           OUTFALL      0.05     0.13     8.85     0  00:47        0.13
  YS02005666           OUTFALL      0.05     0.12     8.80     0  00:47        0.12
  YS02005663           OUTFALL      0.05     0.13     8.86     0  00:47        0.13
  YS02005660           OUTFALL      0.06     0.14     8.96     0  00:47        0.14
  YS02005657           OUTFALL      0.00     0.00     8.74     0  00:00        0.00
  YS02005652           OUTFALL      0.07     0.18     8.80     0  00:47        0.18
  YS02005649           OUTFALL      0.09     0.23     8.93     0  00:45        0.23
  YS02005646           OUTFALL      0.08     0.22     8.22     0  00:46        0.22
  YS02005643           OUTFALL      0.08     0.22     8.77     0  00:47        0.21
  YS02005641           OUTFALL      0.06     0.16     8.85     0  00:47        0.16
  YS02005638           OUTFALL      0.06     0.16     8.81     0  00:47        0.16
  YS02005635           OUTFALL      0.05     0.14     8.80     0  00:47        0.14
  YS02005632           OUTFALL      0.05     0.13     8.69     0  00:47        0.13
  YS02005629           OUTFALL      0.04     0.11     8.58     0  00:46        0.11
  YS02005626           OUTFALL      0.04     0.10     8.62     0  00:46        0.10
  YS02005623           OUTFALL      0.04     0.11     8.59     0  00:46        0.11
  YS02005620           OUTFALL      0.05     0.14     8.93     0  00:46        0.14
  YS02005617           OUTFALL      0.04     0.11     8.95     0  00:46        0.11
  YSB1103              OUTFALL      0.28     0.60     8.60     0  00:45        0.60
  YSB1229              OUTFALL      0.06     0.16     8.96     0  00:46        0.16
  YS02005548           OUTFALL      0.05     0.13     9.13     0  00:46        0.13
  YS02005552           OUTFALL      0.05     0.13     8.76     0  00:47        0.13
  YS02005555           OUTFALL      0.06     0.12     8.85     0  00:48        0.12
  YS02005558           OUTFALL      0.06     0.12     8.83     0  00:48        0.12
  YS02005561           OUTFALL      0.07     0.14     8.82     0  00:49        0.14
  YS02005564           OUTFALL      0.06     0.12     8.60     0  00:48        0.12
  YS02005567           OUTFALL      0.08     0.15     8.69     0  00:48        0.15
  YS02005570           OUTFALL      0.09     0.17     8.89     0  00:48        0.17
  YS02005574           OUTFALL      0.11     0.22     9.06     0  00:49        0.22
  YS02005578           OUTFALL      0.09     0.19     8.96     0  00:49        0.19
  WS02005134           OUTFALL      0.00     0.00     8.74     0  00:00        0.00
  YS02005581           OUTFALL      0.12     0.29     9.09     0  00:49        0.29
  YS02005584           OUTFALL      0.13     0.30     9.26     0  00:45        0.30
  YS02005593           OUTFALL      0.23     0.28     9.00     0  00:46        0.28
  YS02005596           OUTFALL      0.15     0.30     8.84     0  00:42        0.30
  YS02005374           OUTFALL      0.13     0.30     8.54     0  00:42        0.30
  YS02005375           OUTFALL      0.13     0.30     8.69     0  00:42        0.30
  YS02005607           OUTFALL      0.13     0.30     7.53     0  00:43        0.30
  YS02005610           OUTFALL      0.08     0.20     8.81     0  00:47        0.20
  YS02005613           OUTFALL      0.13     0.30     8.58     0  00:45        0.30
  HS02003172           OUTFALL      0.19     0.47     5.92     0  00:48        0.47
  YS6395               OUTFALL      0.11     0.26     6.68     0  00:48        0.26
  YS6405               OUTFALL      0.17     0.41     3.86     0  00:47        0.40
  WSC                  OUTFALL      0.61     0.80     5.00     0  00:37        0.80
  JiankangQianchi      STORAGE      2.81     4.21     5.01     0  01:08        4.18
  CaochengTiaoxuchi    STORAGE      0.89     1.40     6.90     0  01:02        1.40
  XierchiQianchi       STORAGE      7.02     7.47     5.47     0  02:02        7.47
  
  
  *******************
  Node Inflow Summary
  *******************
  
  -------------------------------------------------------------------------------------------------
                                  Maximum  Maximum                  Lateral       Total        Flow
                                  Lateral    Total  Time of Max      Inflow      Inflow     Balance
                                   Inflow   Inflow   Occurrence      Volume      Volume       Error
  Node                 Type           LPS      LPS  days hr:min    10^6 ltr    10^6 ltr     Percent
  -------------------------------------------------------------------------------------------------
  WS02001211           JUNCTION      7.35   221.54     0  00:43      0.0538        1.19       4.157
  WS02001212           JUNCTION      0.00   246.61     0  00:43           0        1.14       2.295
  WS02001213           JUNCTION      0.00   249.57     0  00:43           0        1.13       3.196
  WS02003069           JUNCTION      0.32  2520.65     0  00:47     0.00234        10.5       0.652
  WS02003072           JUNCTION      0.00  2520.68     0  00:47           0        10.5       0.564
  WS02003073           JUNCTION      1.82  3087.99     0  00:47      0.0133        13.8       0.273
  WS02003076           JUNCTION      0.00  3088.02     0  00:47           0        13.8       0.298
  WS02003060           JUNCTION     16.53  2520.63     0  00:47       0.121        10.6       0.528
  WS02003066           JUNCTION      0.00  2332.20     0  00:46           0        9.46       0.105
  WS02003059           JUNCTION      0.00   270.98     0  00:43           0        1.14       5.029
  WS02003115           JUNCTION      0.00   477.11     0  01:01           0        1.15       0.376
  WS02003116           JUNCTION      0.00   301.54     0  00:24           0        1.13       0.730
  WS02003118           JUNCTION      0.31   240.17     0  00:31    1.46e-05        1.12       1.332
  WS02003215           JUNCTION      0.17  2351.56     0  00:47    2.02e-05        3.05       0.878
  WS02003110           JUNCTION      0.18   459.33     0  00:47     0.00132       0.611       1.213
  WS02003111           JUNCTION      1.49   937.76     0  00:47      0.0107        1.69       0.424
  WS02005155           JUNCTION      0.38   459.11     0  00:47     0.00279        0.61       1.605
  WS02005154           JUNCTION    458.58   458.58     0  00:47       0.606       0.608       0.984
  WS02005193           JUNCTION      0.00   189.49     0  00:28           0      0.0151     137.992
  WS02005196           JUNCTION      0.00   160.22     0  00:28           0     0.00563     615.259
  WS02003067           JUNCTION      0.00  1870.20     0  00:46           0        7.46       0.191
  WS02004401           JUNCTION      0.00  1105.62     0  01:30           0        5.75       0.549
  WS02004402           JUNCTION      0.00  1105.82     0  01:30           0        5.72       0.488
  WS02004403           JUNCTION      0.00  1105.77     0  01:30           0         5.7       0.423
  WS02004404           JUNCTION      0.16  1106.18     0  01:30     0.00119        5.69       0.291
  WS02004406           JUNCTION      0.00  1105.97     0  01:30           0        5.66       0.723
  WS02004409           JUNCTION      0.00  1828.40     0  00:45           0        8.16       0.428
  WS02004410           JUNCTION      0.00  1870.22     0  00:46           0        8.22       0.432
  WS02004411           JUNCTION      0.00  1870.06     0  00:46           0        7.57       0.453
  WS02004412           JUNCTION      0.00  1870.02     0  00:46           0        7.54       0.451
  WS02004413           JUNCTION      0.00  1870.21     0  00:46           0        7.51       0.581
  WS02004405           JUNCTION      0.18  1106.28     0  01:30    0.000436        5.68       0.428
  WS02006109           JUNCTION      1.94  1308.01     0  00:00     0.00968         6.6       0.342
  WS02006110           JUNCTION      0.34  1105.50     0  01:30    0.000252         5.9      -0.331
  WS02006111           JUNCTION      0.04  1176.04     0  00:00    9.28e-06        5.88      -0.301
  WS02006112           JUNCTION      0.48  2307.30     0  00:00     2.5e-05         5.9       0.280
  WS02006113           JUNCTION      0.05  1105.48     0  01:30    7.35e-06        5.87      -0.361
  WS02006115           JUNCTION      0.00  1366.62     0  00:00           0        5.79       0.568
  WS02006116           JUNCTION      0.33  1105.82     0  01:30    0.000424        5.77       0.470
  WS02006230           JUNCTION     10.39  1027.87     0  00:44      0.0753         3.4       0.481
  WS02006231           JUNCTION      0.53   453.33     0  00:57     0.00144        1.99       0.821
  WS02006232           JUNCTION      0.24   453.45     0  01:13    0.000129        2.01       0.899
  WS02006234           JUNCTION      0.12   453.30     0  01:15    3.86e-06        2.02       0.607
  WS02006235           JUNCTION      0.27   415.00     0  01:18    0.000509         2.1       0.521
  WS02006238           JUNCTION      0.00   415.32     0  01:24           0        2.09       0.354
  WS02006240           JUNCTION      0.00   414.87     0  01:18           0        2.12       0.782
  WS02006242           JUNCTION      0.28   414.91     0  00:46    0.000109        2.14       0.923
  WS02006243           JUNCTION      0.64   286.96     0  00:26     0.00141         1.6       1.014
  WS02006245           JUNCTION      0.00   294.87     0  00:26           0        1.61       0.831
  WS02006247           JUNCTION      0.00   307.64     0  00:26           0        1.63       0.739
  WS02006248           JUNCTION      0.00   347.29     0  00:35           0        1.98       0.556
  WS02006249           JUNCTION      0.00  1386.48     0  00:47           0        5.24       0.320
  WS02006239           JUNCTION      0.00   415.01     0  00:41           0         2.1       0.601
  WS02006251           JUNCTION      0.08  1738.41     0  00:47    0.000564        5.52       0.327
  WS02006252           JUNCTION      0.00   750.49     0  00:47           0        1.95      -0.019
  WS02006253           JUNCTION     54.75  1738.47     0  00:47      0.0701        4.46       0.461
  WS02006256           JUNCTION      0.00   300.00     0  00:32           0        1.62       0.064
  WS02004138           JUNCTION      0.00   190.00     0  00:29           0        1.17       0.257
  WS02004139           JUNCTION      0.32   191.79     0  00:44     0.00235        1.17       3.435
  WS02004407           JUNCTION      0.08  1827.76     0  00:45     8.8e-05        8.22       0.327
[...]
  WS02003088WS02003087        1.76      1.77      1.76      1.81         1.76
  WS02003087WS02003086        1.70      1.70      1.77      1.75         0.01
  WS02003086WS02003085        1.69      1.69      1.74      1.79         0.01
  WS02003085WS02003084        1.70      1.70      1.70      1.71         1.69
  WS02003084WS02003083        1.70      1.71      1.70      1.88         1.70
  WS02003083WS02003082        1.68      1.68      1.71      1.79         0.01
  WS02003082WS02003081        1.68      1.68      1.68      1.78         1.68
  WS02003081WS02003080        1.67      1.68      1.67      1.68         1.67
  WS02003080WS02003077        0.62      0.62      1.68      1.68         0.01
  WS02003073WS02003076        0.73      0.73      1.46      0.27         0.01
  HS02004901HS02004770        0.73      0.73      0.74      0.04         0.01
  HS02004876HS02004881        0.75      0.77      0.75      1.62         0.75
  HS02004870HS02004876        0.69      0.69      0.77      0.01         0.01
  HS02004049HS02004052        0.18      0.18      0.20      0.01         0.01
  HS02004048HS02004049        0.29      0.40      0.29      0.47         0.29
  HS02004046HS02004048        0.19      0.19      0.40      0.01         0.01
  HS02004043HS02004046        0.15      0.15      0.22      0.05         0.05
  HS02004041HS02004043        0.01      0.01      0.14      0.01         0.01
  HS02004028HS02004027        0.01      0.14      0.01      0.16         0.01
  HS02003143HS02003065        0.57      0.57      0.79      0.01         0.01
  HS02004842HS02004848        0.60      0.60      0.82      0.01         0.01
  HS02004837HS02004842        0.63      0.63      0.82      0.01         0.01
  HS02004830HS02004837        0.63      0.63      0.69      0.01         0.01
  HS02004824HS02004830        0.69      0.69      0.74      0.01         0.01
  HS02004817HS02004824        0.74      0.74      1.56      0.01         0.01
  HS02004770HS02004777        0.73      0.73      0.75      0.01         0.01
  HS02004799HS02004480        0.90      0.90      0.99      1.00         0.01
  HS02004792HS02004799        0.84      0.84      0.99      0.01         0.01
  HS02004788HS02004792        0.68      0.68      0.84      0.01         0.01
  HS02004785HS02004788        0.68      0.69      0.68      1.54         0.58
  HS02004777HS02004785        0.69      0.69      0.75      0.01         0.01
  HS02004480HS02004478        0.84      0.90      0.84      1.69         0.84
  HS02004479HS02004480        0.91      0.91      0.95      0.01         0.01
  HS02003013HS02003010        0.38      0.38      0.43      0.25         0.25
  HS02003010HS02003007        0.37      0.37      0.38      0.41         0.37
  HS02003007HS02003004        0.38      0.38      0.47      0.21         0.21
  HS02003004HS02003001        0.01      0.47      0.01      1.08         0.01
  HS02003065HS02003056        0.78      0.78      0.93      0.01         0.01
  HS02003042HS02003053        0.33      0.33      0.73      0.01         0.01
  HS02003028HS02003021        0.25      0.25      0.32      0.01         0.01
  HS02003021HS02003018        0.35      0.35      0.37      0.13         0.13
  HS02003018HS02003017        0.37      0.37      0.38      0.10         0.08
  HS02003017HS02003013        0.38      0.38      0.38      0.31         0.29
  HS02004862HS02004870        0.66      0.66      0.69      0.23         0.22
  HS02004848HS02004852        0.60      0.60      0.63      0.02         0.01
  HS02004856HS02004862        0.61      0.61      0.66      0.01         0.01
  HS02004852HS02004856        0.63      0.63      0.66      0.02         0.01
  HS02004024HS02004022        0.01      0.01      0.18      0.01         0.01
  HS02004022HS02004021        0.18      0.18      0.28      0.01         0.01
  HS02004021HS02004019        0.28      0.28      0.37      0.21         0.22
  HS02004019HS02003162        0.01      0.37      0.01      0.40         0.01
  HS02004052HS02004053        0.19      0.20      0.19      0.22         0.19
  HS02003122HS02003125        1.51      1.51      1.51      0.18         0.21
  HS02003119HS02003122        1.50      1.50      1.52      0.01         0.01
  HS02003116HS02003119        1.23      1.23      1.50      0.01         0.01
  HS02003111HS02003116        0.01      0.01      1.31      0.01         0.01
  HS02004018HS02004019        0.22      0.22      0.37      0.01         0.01
  HS02003056HS02003136        0.81      0.81      1.54      0.01         0.01
  HS02004017HS02004018        0.20      0.20      0.22      0.01         0.01
  HS02004013HS02004017        0.01      0.01      0.20      0.04         0.01
  HS02004802HS02004478        0.85      0.85      0.92      0.22         0.01
  HS02004478WS02006287        0.71      0.71      0.91      0.01         0.01
  HS02003079HS02003084        0.02      0.02      0.04      0.01         0.01
  HS02003148HS02003145        0.01      0.01      0.17      0.03         0.01
  HS02003145HS02003143        0.17      0.17      0.55      0.15         0.14
  HS02003136WS02003203        1.55      1.55      1.64      0.01         0.01
  HS02003084HS02003088        0.04      0.04      0.07      0.01         0.01
  HS02003077HS02003079        0.01      0.01      0.02      0.01         0.01
  HS02003108HS02003111        0.18      0.18      0.41      0.01         0.01
  HS02003100HS02003108        0.10      0.10      0.18      0.01         0.01
  HS02003088HS02003100        0.09      0.09      0.10      0.04         0.04
  HS02004817HS02004807        0.89      0.89      1.56      0.01         0.01
  HS02004807HS02004802        0.89      0.89      0.91      0.37         0.37
  HS02003053HS02003056        0.73      0.73      0.93      0.01         0.01
  HS02003039HS02003042        0.40      0.41      0.43      0.25         0.02
  HS02003036HS02003039        0.20      0.20      0.25      0.01         0.01
  YS02001759YS02001757        0.16      0.16      0.17      0.18         0.15
  YS02001762YS02001759        0.16      0.16      0.16      0.17         0.15
  YS02001765YS02001762        0.16      0.16      0.16      0.11         0.10
  YS02001770YS02001767        0.16      0.18      0.16      0.70         0.16
  YS02001774YS02001770        0.17      0.17      0.20      0.01         0.01
  YS02001779YS02001774        0.14      0.14      0.20      0.01         0.01
  YS02001767YS02001765        0.16      0.16      0.16      0.21         0.16
  YS02006561YS02001783        0.49      0.49      0.69      0.01         0.01
  YS02001783YS02001784        0.67      0.69      0.67      0.86         0.67
  YS02001784YS02001785        0.56      0.67      0.56      1.19         0.56
  YS02001790YS02001791        0.01      0.01      0.01      0.65         0.01
  YS02001910YS02001907        0.73      0.73      0.93      0.07         0.08
  YS02001786YS02001788        0.01      0.56      0.01      1.00         0.01
  YS02001915YS02001910        0.63      0.63      0.73      0.01         0.01
  YS02001918YS02001915        0.54      0.54      0.63      0.01         0.01
  YS02001923YS02001920        0.47      0.47      0.56      0.01         0.01
  YS02001926YS02001923        0.20      0.20      0.23      0.01         0.01
  YS02001929YS02001926        0.10      0.10      0.23      0.01         0.01
  YS02001932YS02001929        0.04      0.04      0.10      0.01         0.01
  YS02001935YS02001932        0.01      0.01      0.01      0.01         0.01
  YS02001920YS02001918        0.54      0.54      0.56      0.01         0.01
  YS02003290YS02003287        1.59      1.59      1.64      0.01         0.01
  YS02003294YS02003290        1.60      1.60      1.69      0.01         0.01
  YS02003297YS02003294        1.67      1.67      1.67      0.39         0.37
  YS02003275YS02003272        1.32      1.48      1.32      1.62         1.32
  YS02003300YS02003297        1.60      1.60      1.65      0.01         0.01
  YS02003303YS02003300        1.58      1.58      1.62      0.01         0.01
  YS02005582YS02005583        0.22      0.42      0.22      0.60         0.22
  YS02003272YS02003269        0.01      1.41      0.01      1.62         0.01
  YS02003278YS02003275        1.54      1.65      1.54      1.73         1.54
  YS02003281YS02003278        1.62      1.62      1.64      1.53         1.52
  YS02003284YS02003281        1.62      1.62      1.65      1.07         0.38
  YS02003287YS02003284        1.63      1.63      1.66      0.01         0.05
  YS02003306YS02003303        1.53      1.53      1.60      0.52         0.53
  YS02003309YS02003306        1.39      1.39      1.53      0.01         0.01
  YS02005600YS02005375        0.22      0.22      0.23      0.23         0.22
  YS02005384YS02005593        0.01      1.21      0.01      1.27         0.01
  YS02005595YS02005596        0.29      0.30      0.29      0.32         0.29
  YS02005612YS02005613        0.09      0.09      0.93      0.28         0.01
  YS02005553YS02005554        0.01      0.01      0.01      0.10         0.01
  YS02005556YS02005557        0.01      0.01      0.01      0.11         0.01
  YS02005562YS02005563        0.01      0.01      0.01      0.01         0.01
  YS02005571YS02005572        0.01      0.20      0.01      0.38         0.01
  YS02005579YS02005580        0.01      0.30      0.01      0.46         0.01
  YS02005580YS02005581        0.01      0.01      0.01      0.12         0.01
  YS02005583YS02005584        0.22      0.22      0.23      0.23         0.22
  YS02006553YS02006556        0.83      0.83      0.96      0.01         0.01
  YS02006556YS02006558        0.89      0.89      0.99      0.01         0.01
  YSB6556YSB1171              1.02      1.02      1.63      0.01         0.01
  YSB1202YSB1205              1.25      1.25      1.35      0.01         0.01
  YSB1205YSB1209              1.35      1.35      1.36      1.01         0.95
  YSB1209YSB1212              1.28      1.36      1.28      1.48         1.28
  YSB1212YSB1215              1.28      1.28      1.32      0.67         0.65
  YSB1215YSB1218              1.32      1.32      1.35      0.75         0.74
  YSB1218YSB1221              1.25      1.25      1.38      1.02         1.02
  YSB1221YSB1224              1.38      1.38      1.38      1.24         1.24
  YSB1224YSB1105              0.80      1.41      0.80      1.48         0.80
  YSB1189YSB1186              0.62      0.62      0.73      0.18         0.18
  YS02001907YS02006553        1.20      1.20      1.30      0.01         0.01
  YS02006562YS02006558        0.69      0.69      0.99      0.01         0.01
  YS02006558YS02006561        0.58      0.81      0.58      1.13         0.58
  YS6184YS6187                0.16      0.16      0.18      0.10         0.10
  YS6360YS6363                0.13      0.18      0.13      0.76         0.13
  YS6354YS6360                0.23      0.23      0.24      0.23         0.22
  YS6351YS6354                0.23      0.25      0.23      0.45         0.23
  YS6350YS6351                0.25      0.28      0.25      0.78         0.25
  YS6348YS6350                0.26      0.26      0.28      0.24         0.24
  YS6344YS6348                0.26      0.26      0.33      0.01         0.01
  YS6363YS6132                0.13      0.13      0.28      0.01         0.01
  YS6137YS6132                0.20      0.20      0.39      0.01         0.01
  YS6189YS6137                0.20      0.20      0.23      1.52         0.01
  YS6187YS6189                0.16      0.16      0.18      0.32         0.01
  YS6179YS6184                0.15      0.15      0.16      0.01         0.01
  YS6176YS6179                0.09      0.09      0.15      0.01         0.01
  YS6171YS6176                0.11      0.11      0.14      0.01         0.01
  YS6168YS6171                0.10      0.10      0.11      0.07         0.08
  YS6164YS6168                0.07      0.07      0.10      0.01         0.01
  YS6162YS6164                0.10      0.10      0.11      0.01         0.01
  YS6132YS6404                0.01      0.18      0.01      0.32         0.01
  YSB1106YSB1105              0.01      0.20      0.01      0.25         0.01
  YSB1109YSB1106              0.20      0.26      0.20      0.40         0.20
  YSB1112YSB1109              0.26      0.27      0.26      0.30         0.26
  YSB1115YSB1112              0.24      0.24      0.27      0.13         0.13
  YSB1118YSB1115              0.27      0.28      0.27      0.30         0.27
  YSB1121YSB1118              0.28      0.31      0.28      0.41         0.28
  YSB1124YSB1121              0.27      0.27      0.31      0.01         0.01
  YSB1105YSB1103              0.01      0.01      0.18      0.18         0.01
  YS02001748YS02001751        0.01      0.01      0.01      0.01         0.01
  YS02001751YS02001754        0.01      0.01      0.08      0.01         0.01
  YS02001754YS02001757        0.09      0.09      0.17      0.01         0.01
  YS02001882YS02001884        0.63      0.63      0.65      0.01         0.01
  YS02001884YS02001887        0.67      0.67      0.68      0.01         0.01
  YS02001890YS02001895        0.62      0.62      0.73      0.01         0.01
  YS02001895YS02001898        0.62      0.62      0.62      0.01         0.01
  YS02001898YS02001901        0.63      0.63      0.67      0.01         0.01
  YS02001901YS02001904        0.66      0.66      0.67      0.01         0.01
  YS02001904YS02001907        0.66      0.66      0.97      0.01         0.01
  YS02001887YS02001890        0.70      0.70      0.71      0.17         0.01
  YS02004309YS02004307        0.17      0.91      0.17      0.89         0.17
  YS02004319YS02004316        0.33      0.33      0.35      0.01         0.01
  YS02005376YS02005378        1.56      1.56      1.83      0.01         0.01
  YS02005378YS02005381        1.80      1.80      1.83      0.21         0.01
  YS02005381YS02005384        1.21      1.21      1.80      1.81         0.01
  YS02005598YS02005374        0.22      0.22      0.23      0.23         0.22
  YS02005602YS02005603        0.20      0.51      0.20      0.64         0.20
  YS02005603YS02005607        0.20      0.20      0.22      0.22         0.20
  YS02005621YS02005622        0.01      0.01      0.01      0.05         0.01
  YS02005624YS02005625        0.01      0.01      0.24      0.01         0.01
  YS02005630YS02005631        0.01      0.04      0.01      0.08         0.01
  YS02005633YS02005634        0.01      0.01      0.01      0.05         0.01
  YS02005636YS02005637        0.01      0.07      0.01      0.11         0.01
  YS02005639YS02005640        0.01      0.03      0.01      0.07         0.01
  YS02005627YS02005628        0.01      0.04      0.01      0.25         0.01
  YS02005644YS02005645        0.01      0.15      0.01      0.18         0.01
  YS02005650YS02005651        0.01      0.12      0.01      0.20         0.01
  YS02005653YS02005654        0.10      0.10      0.10      0.10         0.09
  YS02005654YS02005655        0.01      0.10      0.01      0.19         0.01
  YS02005658YS02005659        0.01      0.03      0.01      0.08         0.01
  YS02005661YS02005662        0.01      0.10      0.01      0.21         0.01
  YS02005664YS02005665        0.01      0.11      0.01      0.47         0.01
  YS02005667YS02005668        0.01      0.01      0.49      0.12         0.01
  YS02005647YS02005648        0.01      0.27      0.01      0.41         0.01
  YS02004312YS02004309        0.57      0.57      0.91      0.01         0.01
  YS02004314YS02004312        0.37      0.37      0.57      0.01         0.01
  YS02004316YS02004314        0.35      0.35      0.37      0.29         0.29
  YS02004320YS02004319        0.01      0.01      0.25      0.01         0.01
  YS6404YS6401                0.01      0.01      0.01      0.74         0.01
  YSB1132YSB1135              0.61      0.61      0.67      0.01         0.01
  YSB1135YSB1138              0.67      0.67      0.70      0.01         0.01
  YSB1138YSB1141              0.70      0.70      0.79      0.41         0.41
  YSB1141YSB1145              0.77      0.77      0.80      0.40         0.37
  YSB1148YSB1151              0.88      0.88      1.13      0.01         0.01
  YSB1151YSB1154              0.98      0.98      1.31      0.01         0.01
  YSB1154YSB6556              1.02      1.02      1.31      0.41         0.01
  YSB1128YSB1132              0.58      0.58      0.61      0.01         0.01
  YSB1145YSB1148              0.80      0.80      0.88      0.01         0.01
  YSB1198YSB1195              0.29      0.29      0.56      0.01         0.01
  YSB1195YSB1192              0.56      0.56      0.59      0.01         0.01
  YSB1192YSB1189              0.59      0.59      0.62      0.01         0.01
  YSB1186YSB1183              0.68      0.68      0.80      0.01         0.01
  YSB1183YSB1180              0.80      0.80      0.84      0.22         0.23
  YSB1180YSB1177              0.84      0.84      1.18      0.01         0.01
  YSB1177YSB1174              1.18      1.18      1.45      0.23         0.24
  YSB1174YSB1171              1.13      1.13      1.59      0.16         0.17
  YSB1171HS02004479           0.88      0.88      1.28      0.01         0.01
  YS02004307HS02004052        0.01      0.01      0.20      0.01         0.01
  HS02004881HS02006253        0.75      0.75      1.54      0.01         0.01
  WS0200404049WS6136          0.18      0.18      0.28      0.01         0.01
  HS02003125WS02003215        1.51      1.51      1.54      0.01         0.01
  YS02001793JiankangQianchi        0.01      0.01      2.02      0.01         0.01
  YS02001757CaochengTiaoxuchi        0.16      0.17      0.58      0.12         0.10
  WS02004041WS6409            1.11      1.11      1.21      1.19         1.11
  WSF200WS02003060            0.28      0.28      0.55      0.01         0.01
  HS02004053WS02004407        0.19      0.19      1.15      0.01         0.01
  HS02003036HS02003028        0.20      0.20      0.31      0.01         0.01
  
  
  ***************
  Pumping Summary
  ***************
  
  ---------------------------------------------------------------------------------------------------------
                                                  Min       Avg       Max     Total     Power    % Time Off
                        Percent   Number of      Flow      Flow      Flow    Volume     Usage    Pump Curve
  Pump                 Utilized   Start-Ups       LPS       LPS       LPS  10^6 ltr     Kw-hr    Low   High
  ---------------------------------------------------------------------------------------------------------
  CaochengSewagePump1     72.79           1      0.00    200.00    200.00     1.067      8.33    0.0    0.0
  CaochengSewagePump2     42.68           1      0.00    200.00    200.00     0.625      5.23    0.0    0.0
  CaochengRainPump1       39.54           1      0.00    683.00    683.00     1.979      3.14    0.0   35.6
  CaochengRainPump2       29.93           1      0.00    683.00    683.00     1.498      2.06    0.0   47.0
  JiankangSewagePump      73.48           1      0.00    300.00    300.00     1.615     25.52    0.0    0.0
  JiankangRainPump1       37.97           5      0.00   1000.00   1000.00     2.781     18.28    0.0    0.0
  JiankangRainPump2        0.00           0      0.00      0.00      0.00     0.000      0.00    0.0    0.0
  XierchiSewagePump1      91.80           1      0.00     95.00     95.00     0.639      3.95    0.0    0.0
  XierchiSewagePump2      76.23           1      0.00     95.00     95.00     0.531      3.11    0.0    0.0
  XierchiSewagePump3       0.00           0      0.00      0.00      0.00     0.000      0.00    0.0    0.0
  XierchiSewagePump4       0.00           0      0.00      0.00      0.00     0.000      0.00    0.0    0.0
  

  Analysis begun on:  Sun Oct 23 01:51:23 2022
  Analysis ended on:  Sun Oct 23 02:24:18 2022
  Total elapsed time: 00:32:55