
  EPA STORM WATER MANAGEMENT MODEL - VERSION 5.1 (Build 5.3.0.dev0)
  --------------------------------------------------------------

  WARNING 04: minimum elevation drop used for Conduit WS02004404WS02004405
  WARNING 03: negative offset ignored for Link YS02001904YS02001907
  
  *********************************************************
  NOTE: The summary statistics displayed in this report are
  based on results found at every computational time step,  
  not just on results from each reporting time step.
  *********************************************************
  
  ****************
  Analysis Options
  ****************
  Flow Units ............... LPS
  Process Models:
    Rainfall/Runoff ........ YES
    RDII ................... NO
    Snowmelt ............... NO
    Groundwater ............ NO
    Flow Routing ........... YES
    Ponding Allowed ........ NO
    Water Quality .......... NO
  Infiltration Method ...... HORTON
  Flow Routing Method ...... DYNWAVE
  Surcharge Method ......... EXTRAN
  Starting Date ............ 03/31/2017 00:00:00
  Ending Date .............. 03/31/2017 03:00:00
  Antecedent Dry Days ...... 8.0
  Report Time Step ......... 00:00:30
  Wet Time Step ............ 00:01:00
  Dry Time Step ............ 00:01:00
  Routing Time Step ........ 30.00 sec
  Variable Time Step ....... YES
  Maximum Trials ........... 8
  Number of Threads ........ 6
  Head Tolerance ........... 0.001500 m
  
  
  **************************        Volume         Depth
  Runoff Quantity Continuity     hectare-m            mm
  **************************     ---------       -------
  Initial LID Storage ......         0.470         3.988
  Total Precipitation ......        10.619        90.112
  Evaporation Loss .........         0.000         0.000
  Infiltration Loss ........         0.265         2.249
  Surface Runoff ...........         8.186        69.466
  Final Storage ............         2.650        22.490
  Continuity Error (%) .....        -0.111
  
  
  **************************        Volume        Volume
  Flow Routing Continuity        hectare-m      10^6 ltr
  **************************     ---------     ---------
  Dry Weather Inflow .......         0.171         1.715
  Wet Weather Inflow .......         8.173        81.729
  Groundwater Inflow .......         0.000         0.000
  RDII Inflow ..............         0.000         0.000
  External Inflow ..........         0.033         0.330
  External Outflow .........         4.561        45.612
  Flooding Loss ............         3.583        35.830
  Evaporation Loss .........         0.000         0.000
  Exfiltration Loss ........         0.000         0.000
  Initial Stored Volume ....         0.303         3.031
  Final Stored Volume ......         0.567         5.669
  Continuity Error (%) .....        -0.353
  
  
  *************************
  Highest Continuity Errors
  *************************
  Node WS02005193 (58.24%)
  Node YS02001884 (26.43%)
  Node YS02004320 (6.80%)
  Node YS02001774 (5.24%)
  Node HS02003116 (4.86%)
  
  
  ***************************
  Time-Step Critical Elements
  ***************************
  Link YS02005655YS02005657 (37.24%)
  Link WS02006252WS02006251 (22.55%)
  Link WS02004041WS6409 (20.82%)
  Link WS02003073WS02003076 (2.24%)
  Link WS02006280WS02006229 (2.08%)
  
  
  ********************************
  Highest Flow Instability Indexes
  ********************************
  Link WS02003200WS02003201 (69)
  Link WS02006238WS02006235 (66)
  Link WS02003122WS02003187 (66)
  Link WS02003215WS02003116 (65)
  Link WS02003203WS02003091 (60)
  
  
  *************************
  Routing Time Step Summary
  *************************
  Minimum Time Step           :     0.50 sec
  Average Time Step           :     0.99 sec
  Maximum Time Step           :    30.00 sec
  Percent in Steady State     :     0.00
  Average Iterations per Step :     6.18
  Percent Not Converging      :    39.07
  
  
  ***************************
  Subcatchment Runoff Summary
  ***************************
  
  ------------------------------------------------------------------------------------------------------------------------------
                            Total      Total      Total      Total     Imperv       Perv      Total       Total     Peak  Runoff
                           Precip      Runon       Evap      Infil     Runoff     Runoff     Runoff      Runoff   Runoff   Coeff
  Subcatchment                 mm         mm         mm         mm         mm         mm         mm    10^6 ltr      LPS
  ------------------------------------------------------------------------------------------------------------------------------
  sub0                      90.11       0.00       0.00       0.73      81.50       5.26      86.76        0.07    54.75   0.963
  sub1                      90.11       0.00       0.00       1.22      73.76       7.76      81.52        0.54   354.42   0.905
  sub2                      90.11       0.00       0.00       3.58      36.80      16.72      53.52        0.50   281.75   0.594
  sub3                      90.11       0.00       0.00       3.61      37.95      16.44      54.39        1.22   632.98   0.604
  sub4                      90.11       0.00       0.00       1.15      73.76       7.69      81.45        1.70   880.85   0.904
  sub5                      90.11       0.00       0.00       0.73      79.88       5.18      85.06        0.96   628.52   0.944
  sub6                      90.11       0.00       0.00       0.73      79.15       5.14      84.30        2.18  1326.46   0.935
  sub7                      90.11       0.00       0.00       0.94      79.01       6.69      85.70        0.29   205.32   0.951
  sub8                      90.11       0.00       0.00       0.94      78.71       6.67      85.38        0.55   373.92   0.947
  sub9                      90.11       0.00       0.00       0.94      78.65       6.66      85.31        0.41   279.59   0.947
  sub10                     90.11       0.00       0.00       0.84      79.20       5.92      85.11        0.94   622.00   0.945
  sub11                     90.11       0.00       0.00       0.84      79.68       5.95      85.62        0.99   689.52   0.950
  sub12                     90.11       0.00       0.00       1.47      71.16       9.05      80.21        0.70   531.58   0.890
  sub13                     90.11       0.00       0.00       3.54      55.05      22.70      77.75        0.92   568.63   0.863
  sub14                     90.11       0.00       0.00       0.94      78.59       6.66      85.25        0.81   550.27   0.946
  sub15                     90.11       0.00       0.00       3.10      45.19      15.78      60.97        1.05   676.81   0.677
  sub16                     90.11       0.00       0.00       3.31      41.84      17.04      58.87        0.62   438.02   0.653
  sub17                     90.11       0.00       0.00       3.23      41.45      16.13      57.57        0.49   349.24   0.639
  sub18                     90.11       0.00       0.00       0.94      79.21       6.71      85.92        0.68   499.23   0.953
  sub19                     90.11       0.00       0.00       3.17      44.32      16.43      60.76        0.19   133.90   0.674
  sub20                     90.11       0.00       0.00       0.94      78.98       6.69      85.67        0.60   423.53   0.951
  sub21                     90.11       0.00       0.00       1.33      73.70       8.56      82.26        0.42   309.30   0.913
  sub22                     90.11       0.00       0.00       4.04      34.75      20.87      55.62        3.51  2154.72   0.617
  sub23                     90.11       0.00       0.00       3.59      37.69      18.00      55.70        2.66  1748.69   0.618
  sub24                     90.11       0.00       0.00       1.56      70.12       9.69      79.82        2.86  2095.92   0.886
  sub25                     90.11       0.00       0.00       0.73      81.63       5.27      86.90        1.13   888.22   0.964
  sub26                     90.11       0.00       0.00       2.60      54.27      14.50      68.77        0.98   798.26   0.763
  sub27                     90.11       0.00       0.00       0.94      78.50       6.65      85.15        1.23   827.97   0.945
  sub28                     90.11       0.00       0.00       0.84      79.31       5.92      85.23        1.34   894.15   0.946
  sub29                     90.11       0.00       0.00       0.84      78.11       5.84      83.95        1.35   809.81   0.932
  sub30                     90.11       0.00       0.00       0.84      80.35       5.99      86.35        1.95  1470.69   0.958
  sub31                     90.11       0.00       0.00       1.78      72.66      12.61      85.28        1.81  1386.08   0.946
  sub32                     90.11       0.00       0.00       0.84      79.91       5.96      85.88        1.71  1223.07   0.953
  sub33                     90.11       0.00       0.00       1.44      72.50       9.22      81.72        1.50  1139.92   0.907
  sub34                     90.11       0.00       0.00       4.17      23.55      19.48      43.04        0.96   700.73   0.478
  sub35                     90.11       0.00       0.00       0.84      81.25       6.05      87.30        0.30   264.15   0.969
  sub36                     90.11       0.00       0.00       2.41      57.54      13.73      71.27        0.62   492.19   0.791
  sub37                     90.11       0.00       0.00       3.69      34.76      18.63      53.40        0.41   322.69   0.593
  sub38                     90.11       0.00       0.00       3.46      40.45      18.34      58.80        1.12   916.72   0.652
  sub39                     90.11       0.00       0.00       0.84      80.89       6.03      86.92        0.92   744.66   0.965
  sub40                     90.11       0.00       0.00       0.84      80.93       6.03      86.96        1.01   822.26   0.965
  sub41                     90.11       0.00       0.00       1.78      67.61      10.94      78.55        1.51  1192.50   0.872
  sub42                     90.11       0.00       0.00       0.94      79.97       6.77      86.74        0.87   695.08   0.963
  sub43                     90.11       0.00       0.00       3.78      43.65      22.00      65.65        0.53   373.82   0.729
  sub44                     90.11       0.00       0.00       0.73      80.26       5.20      85.46        0.97   651.66   0.948
  sub45                     90.11       0.00       0.00       1.91      64.20      11.08      75.28        1.38   961.68   0.835
  sub46                     90.11       0.00       0.00       4.31      12.15      17.07      29.22        0.20   144.70   0.324
  sub47                     90.11       0.00       0.00       0.84      79.97       5.97      85.93        0.66   472.58   0.954
  sub48                     90.11       0.00       0.00       0.94      79.01       6.69      85.71        0.65   465.93   0.951
  sub49                     90.11       0.00       0.00       0.84      79.57       5.94      85.51        0.78   534.70   0.949
  sub50                     90.11       0.00       0.00       0.84      79.62       5.94      85.56        0.60   412.55   0.949
  sub51                     90.11       0.00       0.00       0.84      80.11       5.98      86.09        0.41   298.11   0.955
  sub52                     90.11       0.00       0.00       0.73      80.34       5.21      85.55        0.93   630.91   0.949
  sub53                     90.11       0.00       0.00       0.84      79.92       5.96      85.88        0.87   621.00   0.953
  sub54                     90.11       0.00       0.00       0.73      79.81       5.18      84.99        0.51   328.87   0.943
  sub55                     90.11       0.00       0.00       0.84      79.25       5.92      85.17        0.68   452.66   0.945
  sub56                     90.11       0.00       0.00       1.99      68.93      13.26      82.19        1.17   681.41   0.912
  sub57                     90.11       0.00       0.00       3.25      59.38      21.18      80.56        0.52   307.39   0.894
  sub58                     90.11       0.00       0.00       4.47       7.72      16.53      24.25        0.90   490.97   0.269
  sub59                     90.11       0.00       0.00       4.27       5.24      13.61      18.85        0.43   215.21   0.209
  sub60                     90.11       0.00       0.00       1.26      76.33       8.86      85.19        1.12   783.44   0.945
  sub61                     90.11       0.00       0.00       1.78      72.10      12.45      84.55        1.55  1087.94   0.938
  sub62                     90.11       0.00       0.00       0.84      79.07       5.91      84.97        2.33  1524.12   0.943
  sub67                     90.11       0.00       0.00       0.84      79.26       5.92      85.18        1.58  1056.35   0.945
  sub68                     90.11       0.00       0.00       1.55      70.32       9.69      80.01        2.20  1494.82   0.888
  sub71                     90.11       0.00       0.00       0.84      78.25       5.85      84.10        2.20  1330.45   0.933
  sub72                     90.11       0.00       0.00       0.73      78.10       5.09      83.19        1.14   643.25   0.923
  sub73                     90.11       0.00       0.00       2.31      59.54      13.40      72.93        0.07    56.80   0.809
  sub74                     90.11       0.00       0.00       3.25      44.97      17.73      62.70        0.10    78.21   0.696
  sub75                     90.11       0.00       0.00       3.10      46.59      16.80      63.40        0.14   110.95   0.704
  sub76                     90.11       0.00       0.00       2.00      64.29      11.96      76.25        0.19   145.80   0.846
  sub77                     90.11       0.00       0.00       1.90      65.60      11.41      77.01        0.12    97.43   0.855
  sub78                     90.11       0.00       0.00       1.36      75.95       9.66      85.61        0.24   176.39   0.950
  sub79                     90.11       0.00       0.00       2.56      59.20      15.65      74.85        0.19   141.13   0.831
  sub80                     90.11       0.00       0.00       3.36      46.82      19.25      66.07        0.19   146.56   0.733
  sub81                     90.11       0.00       0.00       3.66      42.28      20.54      62.82        0.19   138.90   0.697
  sub82                     90.11       0.00       0.00       3.63      40.66      19.85      60.52        0.18   135.71   0.672
  sub83                     90.11       0.00       0.00       3.68      38.39      19.62      58.01        0.20   148.72   0.644
  sub84                     90.11       0.00       0.00       3.47      41.23      18.37      59.60        0.32   232.45   0.661
  sub85                     90.11       0.00       0.00       2.52      66.24      17.45      83.69        0.37   262.95   0.929
  sub86                     90.11       0.00       0.00       2.75      57.18      16.77      73.95        0.36   259.89   0.821
  sub87                     90.11       0.00       0.00       3.60      51.68      23.05      74.72        0.22   162.17   0.829
  sub88                     90.11       0.00       0.00       3.51      52.59      22.50      75.09        0.23   168.19   0.833
  sub89                     90.11       0.00       0.00       3.21      53.39      20.11      73.50        0.20   151.48   0.816
  sub90                     90.11       0.00       0.00       2.84      59.91      18.59      78.50        0.19   147.85   0.871
  sub91                     90.11       0.00       0.00       2.84      57.92      18.08      76.00        0.14   110.74   0.843
  sub92                     90.11       0.00       0.00       3.21      52.80      20.04      72.84        0.11    91.43   0.808
  sub93                     90.11       0.00       0.00       3.22      54.21      20.58      74.79        0.14   113.98   0.830
  sub94                     90.11       0.00       0.00       3.23      55.75      21.07      76.82        0.17   132.01   0.852
  sub95                     90.11       0.00       0.00       3.02      50.20      17.32      67.52        0.10    84.37   0.749
  sub96                     90.11       0.00       0.00       2.41      57.72      13.85      71.57        0.13   116.58   0.794
  sub97                     90.11       0.00       0.00       4.32      13.81      18.29      32.10        0.07    67.77   0.356
  sub98                     90.11       0.00       0.00       4.43       8.02      17.22      25.24        0.08    63.19   0.280
  sub99                     90.11       0.00       0.00       4.19       4.34      13.51      17.85        0.06    44.66   0.198
  sub100                    90.11       0.00       0.00       4.17       4.25      13.11      17.36        0.06    39.63   0.193
  sub101                    90.11       0.00       0.00       4.17       4.25      13.09      17.34        0.06    37.81   0.192
  sub102                    90.11       0.00       0.00       4.29       5.66      14.45      20.11        0.06    35.64   0.223
  sub103                    90.11       0.00       0.00       4.43       5.53      15.64      21.17        0.10    55.98   0.235
  sub104                    90.11       0.00       0.00       4.18       4.61      13.13      17.73        0.09    53.78   0.197
  sub105                    90.11       0.00       0.00       8.50      16.69      48.11      64.80        0.37   134.86   0.719
  sub106                    90.11       0.00       0.00       6.20      11.27      32.19      43.46        0.22   101.58   0.482
  sub107                    90.11       0.00       0.00       4.26       4.00      13.94      17.93        0.13    81.88   0.199
  sub108                    90.11       0.00       0.00       3.98       2.93      11.13      14.07        0.13    98.78   0.156
  sub109                    90.11       0.00       0.00       3.81       7.29      10.82      18.12        0.26   200.02   0.201
  sub110                    90.11       0.00       0.00       1.99      64.81      12.02      76.83        1.61  1204.54   0.853
  sub111                    90.11       0.00       0.00       2.77      51.22      15.08      66.31        0.57   427.32   0.736
  sub112                    90.11       0.00       0.00       2.31      59.18      13.26      72.44        0.57   434.41   0.804
  sub113                    90.11       0.00       0.00       1.56      70.40       9.74      80.14        0.55   420.70   0.889
  sub114                    90.11       0.00       0.00       1.45      71.71       9.12      80.83        0.54   407.86   0.897
  sub115                    90.11       0.00       0.00       1.31      74.35       8.64      83.00        0.61   460.80   0.921
  sub116                    90.11       0.00       0.00       3.73      32.85      18.05      50.89        0.09    67.31   0.565
  sub117                    90.11       0.00       0.00       3.77      31.50      18.12      49.62        0.23   166.39   0.551
  

  ***********************
  LID Performance Summary
  ***********************

  --------------------------------------------------------------------------------------------------------------------
                                         Total      Evap     Infil   Surface    Drain    Initial     Final  Continuity
                                        Inflow      Loss      Loss   Outflow   Outflow   Storage   Storage       Error
  Subcatchment      LID Control             mm        mm        mm        mm        mm        mm        mm           %
  --------------------------------------------------------------------------------------------------------------------
  sub1              BioRententionCell     90.11      0.00      2.95      0.00      0.00     23.50    110.76       -0.09
  sub2              BioRententionCell     90.11      0.00      2.95      0.00      0.00     23.50    110.76       -0.09
  sub3              BioRententionCell     90.11      0.00      2.95      0.00      0.00     23.50    110.76       -0.09
  sub12             BioRententionCell     90.11      0.00      2.95      0.00      0.00     23.50    110.76       -0.09
  sub13             BioRententionCell     90.11      0.00      2.95      0.00      0.00     23.50    110.76       -0.09
  sub15             BioRententionCell     90.11      0.00      2.95      0.00      0.00     23.50    110.76       -0.09
  sub16             BioRententionCell     90.11      0.00      2.95      0.00      0.00     23.50    110.76       -0.09
  sub17             BioRententionCell     90.11      0.00      2.95      0.00      0.00     23.50    110.76       -0.09
  sub19             BioRententionCell     90.11      0.00      2.95      0.00      0.00     23.50    110.76       -0.09
  sub21             BioRententionCell     90.11      0.00      2.95      0.00      0.00     23.50    110.76       -0.09
  sub22             BioRententionCell     90.11      0.00      2.95      0.00      0.00     23.50    110.76       -0.09
  sub23             BioRententionCell     90.11      0.00      2.95      0.00      0.00     23.50    110.76       -0.09
  sub24             BioRententionCell     90.11      0.00      2.95      0.00      0.00     23.50    110.76       -0.09
  sub26             BioRententionCell     90.11      0.00      2.95      0.00      0.00     23.50    110.76       -0.09
  sub33             BioRententionCell     90.11      0.00      2.95      0.00      0.00     23.50    110.76       -0.09
  sub34             BioRententionCell     90.11      0.00      2.95      0.00      0.00     23.50    110.76       -0.09
  sub36             BioRententionCell     90.11      0.00      2.95      0.00      0.00     23.50    110.76       -0.09
  sub37             BioRententionCell     90.11      0.00      2.95      0.00      0.00     23.50    110.76       -0.09
  sub38             BioRententionCell     90.11      0.00      2.95      0.00      0.00     23.50    110.76       -0.09
  sub41             BioRententionCell     90.11      0.00      2.95      0.00      0.00     23.50    110.76       -0.09
  sub43             BioRententionCell     90.11      0.00      2.95      0.00      0.00     23.50    110.76       -0.09
  sub45             BioRententionCell     90.11      0.00      2.95      0.00      0.00     23.50    110.76       -0.09
  sub46             BioRententionCell     90.11      0.00      2.95      0.00      0.00     23.50    110.76       -0.09
  sub58             BioRententionCell     90.11      0.00      2.95      0.00      0.00     23.50    110.76       -0.09
  sub59             BioRententionCell     90.11      0.00      2.95      0.00      0.00     23.50    110.76       -0.09
  sub68             BioRententionCell     90.11      0.00      2.95      0.00      0.00     23.50    110.76       -0.09
  sub73             BioRententionCell     90.11      0.00      2.95      0.00      0.00     23.50    110.76       -0.09
  sub74             BioRententionCell     90.11      0.00      2.95      0.00      0.00     23.50    110.76       -0.09
  sub75             BioRententionCell     90.11      0.00      2.95      0.00      0.00     23.50    110.76       -0.09
  sub76             BioRententionCell     90.11      0.00      2.95      0.00      0.00     23.50    110.76       -0.09
  sub77             BioRententionCell     90.11      0.00      2.95      0.00      0.00     23.50    110.76       -0.09
  sub79             BioRententionCell     90.11      0.00      2.95      0.00      0.00     23.50    110.76       -0.09
  sub80             BioRententionCell     90.11      0.00      2.95      0.00      0.00     23.50    110.76       -0.09
  sub81             BioRententionCell     90.11      0.00      2.95      0.00      0.00     23.50    110.76       -0.09
  sub82             BioRententionCell     90.11      0.00      2.95      0.00      0.00     23.50    110.76       -0.09
  sub83             BioRententionCell     90.11      0.00      2.95      0.00      0.00     23.50    110.76       -0.09
  sub84             BioRententionCell     90.11      0.00      2.95      0.00      0.00     23.50    110.76       -0.09
  sub86             BioRententionCell     90.11      0.00      2.95      0.00      0.00     23.50    110.76       -0.09
  sub87             BioRententionCell     90.11      0.00      2.95      0.00      0.00     23.50    110.76       -0.09
  sub88             BioRententionCell     90.11      0.00      2.95      0.00      0.00     23.50    110.76       -0.09
  sub89             BioRententionCell     90.11      0.00      2.95      0.00      0.00     23.50    110.76       -0.09
  sub90             BioRententionCell     90.11      0.00      2.95      0.00      0.00     23.50    110.76       -0.09
  sub91             BioRententionCell     90.11      0.00      2.95      0.00      0.00     23.50    110.76       -0.09
  sub92             BioRententionCell     90.11      0.00      2.95      0.00      0.00     23.50    110.76       -0.09
  sub93             BioRententionCell     90.11      0.00      2.95      0.00      0.00     23.50    110.76       -0.09
  sub94             BioRententionCell     90.11      0.00      2.95      0.00      0.00     23.50    110.76       -0.09
  sub95             BioRententionCell     90.11      0.00      2.95      0.00      0.00     23.50    110.76       -0.09
  sub96             BioRententionCell     90.11      0.00      2.95      0.00      0.00     23.50    110.76       -0.09
  sub97             BioRententionCell     90.11      0.00      2.95      0.00      0.00     23.50    110.76       -0.09
  sub98             BioRententionCell     90.11      0.00      2.95      0.00      0.00     23.50    110.76       -0.09
  sub99             BioRententionCell     90.11      0.00      2.95      0.00      0.00     23.50    110.76       -0.09
  sub100            BioRententionCell     90.11      0.00      2.95      0.00      0.00     23.50    110.76       -0.09
  sub101            BioRententionCell     90.11      0.00      2.95      0.00      0.00     23.50    110.76       -0.09
  sub102            BioRententionCell     90.11      0.00      2.95      0.00      0.00     23.50    110.76       -0.09
  sub103            BioRententionCell     90.11      0.00      2.95      0.00      0.00     23.50    110.76       -0.09
  sub104            BioRententionCell     90.11      0.00      2.95      0.00      0.00     23.50    110.76       -0.09
  sub106            BioRententionCell     90.11      0.00      2.95      0.00      0.00     23.50    110.76       -0.09
  sub107            BioRententionCell     90.11      0.00      2.95      0.00      0.00     23.50    110.76       -0.09
  sub108            BioRententionCell     90.11      0.00      2.95      0.00      0.00     23.50    110.76       -0.09
  sub109            BioRententionCell     90.11      0.00      2.95      0.00      0.00     23.50    110.76       -0.09
  sub110            BioRententionCell     90.11      0.00      2.95      0.00      0.00     23.50    110.76       -0.09
  sub111            BioRententionCell     90.11      0.00      2.95      0.00      0.00     23.50    110.76       -0.09
  sub112            BioRententionCell     90.11      0.00      2.95      0.00      0.00     23.50    110.76       -0.09
  sub113            BioRententionCell     90.11      0.00      2.95      0.00      0.00     23.50    110.76       -0.09
  sub114            BioRententionCell     90.11      0.00      2.95      0.00      0.00     23.50    110.76       -0.09
  sub115            BioRententionCell     90.11      0.00      2.95      0.00      0.00     23.50    110.76       -0.09
  sub116            BioRententionCell     90.11      0.00      2.95      0.00      0.00     23.50    110.76       -0.09
  sub117            BioRententionCell     90.11      0.00      2.95      0.00      0.00     23.50    110.76       -0.09
  
  ******************
  Node Depth Summary
  ******************
  
  ---------------------------------------------------------------------------------
                                 Average  Maximum  Maximum  Time of Max    Reported
                                   Depth    Depth      HGL   Occurrence   Max Depth
  Node                 Type       Meters   Meters   Meters  days hr:min      Meters
  ---------------------------------------------------------------------------------
  WS02001211           JUNCTION     1.01     2.57     7.40     0  00:43        2.31
  WS02001212           JUNCTION     0.78     2.22     7.29     0  00:43        1.78
  WS02001213           JUNCTION     1.02     2.46     7.22     0  00:43        2.04
  WS02003069           JUNCTION     0.96     1.69     6.28     0  00:46        1.68
  WS02003072           JUNCTION     1.03     1.59     5.96     0  00:46        1.57
  WS02003073           JUNCTION     1.25     1.71     5.77     0  00:46        1.70
  WS02003076           JUNCTION     0.98     1.36     5.58     0  00:46        1.36
  WS02003060           JUNCTION     0.85     1.82     6.75     0  00:43        1.67
  WS02003066           JUNCTION     0.52     1.18     6.73     0  00:46        1.16
  WS02003059           JUNCTION     1.09     2.13     6.82     0  00:43        1.92
  WS02003115           JUNCTION     2.01     2.76     9.62     0  00:32        2.73
  WS02003116           JUNCTION     2.16     3.03     9.74     0  00:24        2.94
  WS02003118           JUNCTION     2.14     2.90     9.52     0  00:24        2.90
  WS02003215           JUNCTION     2.03     2.80     9.66     0  00:32        2.80
  WS02003110           JUNCTION     1.65     2.35     9.60     0  00:46        2.34
  WS02003111           JUNCTION     1.77     2.35     9.44     0  00:32        2.35
  WS02005155           JUNCTION     1.63     2.45     9.76     0  00:46        2.45
  WS02005154           JUNCTION     1.39     2.35     9.98     0  00:46        2.34
  WS02005193           JUNCTION     1.40     3.19    11.01     0  00:42        3.01
  WS02005196           JUNCTION     1.38     3.31    11.16     0  00:28        2.98
  WS02003067           JUNCTION     0.84     1.49     6.81     0  00:46        1.48
  WS02004401           JUNCTION     1.47     2.52     8.52     0  00:44        2.45
  WS02004402           JUNCTION     1.47     2.53     8.49     0  00:44        2.47
  WS02004403           JUNCTION     1.45     2.53     8.46     0  00:44        2.46
  WS02004404           JUNCTION     1.50     2.58     8.43     0  00:44        2.52
  WS02004406           JUNCTION     1.44     2.53     8.36     0  00:44        2.49
  WS02004409           JUNCTION     1.21     2.35     8.12     0  00:44        2.30
  WS02004410           JUNCTION     1.11     2.11     7.83     0  00:46        2.10
  WS02004411           JUNCTION     1.03     1.89     7.57     0  00:46        1.88
  WS02004412           JUNCTION     0.94     1.65     7.29     0  00:46        1.64
  WS02004413           JUNCTION     0.97     1.56     7.03     0  00:46        1.55
  WS02004405           JUNCTION     1.48     2.56     8.41     0  00:44        2.51
  WS02006109           JUNCTION     1.90     2.64     9.26     0  00:40        2.64
  WS02006110           JUNCTION     1.72     2.49     9.07     0  00:44        2.48
  WS02006111           JUNCTION     1.14     2.00     8.70     0  00:44        1.99
  WS02006112           JUNCTION     1.76     2.68     8.56     0  00:00        2.68
  WS02006113           JUNCTION     1.21     2.00     8.89     0  00:44        1.99
  WS02006115           JUNCTION     1.43     2.42     8.56     0  00:44        2.38
  WS02006116           JUNCTION     1.48     2.51     8.55     0  00:44        2.45
  WS02006230           JUNCTION     1.98     2.65     9.39     0  00:37        2.65
  WS02006231           JUNCTION     1.59     2.19     9.31     0  01:08        2.19
  WS02006232           JUNCTION     1.63     2.18     9.22     0  00:37        2.18
  WS02006234           JUNCTION     1.47     1.96     9.12     0  00:35        1.96
  WS02006235           JUNCTION     1.45     1.93     9.10     0  01:03        1.93
  WS02006238           JUNCTION     1.46     1.94     9.08     0  01:30        1.93
  WS02006240           JUNCTION     1.26     1.63     8.92     0  01:31        1.62
  WS02006242           JUNCTION     1.24     1.55     8.82     0  00:26        1.55
  WS02006243           JUNCTION     1.08     1.48     8.90     0  00:27        1.37
  WS02006245           JUNCTION     1.02     1.27     8.75     0  01:02        1.26
  WS02006247           JUNCTION     1.00     1.23     8.73     0  01:10        1.23
  WS02006248           JUNCTION     0.91     1.10     8.69     0  00:28        1.10
  WS02006249           JUNCTION     0.91     1.09     8.69     0  00:27        1.09
  WS02006239           JUNCTION     1.37     1.79     9.00     0  00:32        1.79
  WS02006251           JUNCTION     1.32     2.21     9.88     0  00:42        2.17
  WS02006252           JUNCTION     0.89     1.50     9.74     0  00:42        1.50
  WS02006253           JUNCTION     1.57     3.18    10.83     0  00:46        3.18
  WS02006256           JUNCTION     1.87     2.35     9.28     0  00:17        2.35
  WS02004138           JUNCTION     0.12     0.14     7.39     0  00:43        0.14
  WS02004139           JUNCTION     0.94     2.67     7.58     0  00:43        2.62
  WS02004407           JUNCTION     0.86     2.06     8.37     0  00:44        1.96
  WS02006228           JUNCTION     2.11     3.03     9.68     0  00:45        3.03
  WS02006229           JUNCTION     2.21     3.23     9.92     0  00:44        3.22
  WS02006280           JUNCTION     0.92     1.75    10.02     0  00:45        1.74
  WS02006284           JUNCTION     1.10     1.95    10.35     0  00:44        1.95
  WS02006287           JUNCTION     0.85     1.75    10.71     0  00:44        1.74
  WS02003091           JUNCTION     2.85     4.43    10.23     0  00:00        3.91
  WS02003203           JUNCTION     2.79     3.83     9.82     0  00:00        3.83
  WS6145               JUNCTION     0.47     2.37    10.47     0  00:45        2.32
  WS6147               JUNCTION     0.40     2.28    10.55     0  00:45        2.17
  WS6150               JUNCTION     0.39     2.24    10.57     0  00:45        2.18
  WS6152               JUNCTION     0.40     2.20    10.54     0  00:45        2.20
  WS6155               JUNCTION     0.36     2.10    10.50     0  00:45        2.10
  WS6156               JUNCTION     0.34     2.05    10.52     0  00:45        2.05
  WS6136               JUNCTION     0.41     1.90    10.85     0  00:43        1.90
  WS6140               JUNCTION     0.52     2.46    10.40     0  00:46        2.45
  WS6142               JUNCTION     0.47     2.33    10.41     0  00:46        2.33
  WS6325               JUNCTION     0.75     2.74    10.39     0  00:46        2.73
  WS6327               JUNCTION     0.60     2.58    10.39     0  00:46        2.57
  WS6329               JUNCTION     0.55     2.51    10.39     0  00:46        2.50
  WS6332               JUNCTION     0.48     2.53    10.56     0  00:44        2.35
  WS6158               JUNCTION     0.32     2.05    10.59     0  00:45        2.05
  WS6335               JUNCTION     0.47     2.60    10.67     0  00:44        2.37
  WS6338               JUNCTION     0.41     2.55    10.75     0  00:44        2.44
  WS6340               JUNCTION     0.37     2.50    10.84     0  00:44        2.50
  WS6342               JUNCTION     0.30     2.50    11.10     0  00:44        2.24
  WS6135               JUNCTION     0.90     2.89    10.39     0  00:46        2.88
  WS6396               JUNCTION     0.58     2.02     9.57     0  00:46        2.01
  WS6399               JUNCTION     0.36     1.37     8.80     0  00:46        1.36
  WS02003082           JUNCTION     1.38     1.93     7.01     0  00:46        1.92
  WS02003077           JUNCTION     0.48     0.85     5.85     0  00:46        0.84
  WS02003080           JUNCTION     0.91     1.30     6.24     0  00:46        1.30
  WS02003083           JUNCTION     1.76     2.41     7.44     0  00:54        2.40
  WS02003084           JUNCTION     1.90     2.60     7.70     0  00:46        2.60
  WS02003085           JUNCTION     1.98     2.72     7.89     0  00:49        2.71
  WS02003086           JUNCTION     2.22     3.02     8.22     0  00:45        3.01
  WS02003087           JUNCTION     2.49     3.36     8.57     0  00:46        3.35
  WS02003088           JUNCTION     2.68     4.14     9.43     0  00:00        4.07
  WS02003089           JUNCTION     2.81     4.34     9.80     0  00:00        4.02
  WS02003090           JUNCTION     3.02     4.12     9.55     0  00:00        4.05
  WS02003081           JUNCTION     1.13     1.61     6.66     0  00:46        1.60
  WS02003122           JUNCTION     2.33     3.11     9.48     0  00:45        3.10
  WS02003187           JUNCTION     2.35     3.11     9.44     0  00:24        3.11
  WS02003188           JUNCTION     2.32     2.97     9.23     0  00:24        2.97
  WS02003190           JUNCTION     2.31     2.84     9.04     0  00:23        2.84
  WS02003193           JUNCTION     2.29     2.85     9.09     0  00:23        2.85
  WS02003195           JUNCTION     2.31     2.93     9.18     0  00:30        2.93
  WS02003196           JUNCTION     2.41     3.31     9.49     0  00:23        3.09
  WS02003198           JUNCTION     2.43     3.17     9.36     0  00:45        3.17
  WS02003200           JUNCTION     2.20     2.99     9.42     0  00:30        2.92
  WS02003201           JUNCTION     2.47     3.22     9.36     0  00:30        3.22
  WS02003202           JUNCTION     2.61     4.17    10.23     0  00:00        3.48
  WS02004041           JUNCTION     0.65     0.98     5.34     0  00:47        0.98
  WSA6400              JUNCTION     1.17     2.43     8.27     0  00:45        2.42
  WS6400               JUNCTION     0.52     1.70     8.36     0  00:45        1.68
  WSF208               JUNCTION     0.86     1.95     8.05     0  00:45        1.95
  WSF207               JUNCTION     0.75     1.70     7.84     0  00:46        1.69
  WSF206               JUNCTION     0.83     1.75     7.68     0  00:45        1.74
  WSF205               JUNCTION     0.76     1.62     7.52     0  00:46        1.61
  WSF204               JUNCTION     1.29     2.18     7.33     0  00:46        2.16
  WSF203               JUNCTION     0.66     1.37     7.08     0  00:46        1.36
  WSF202               JUNCTION     0.58     1.20     6.92     0  00:46        1.19
  WSF201               JUNCTION     0.50     1.05     6.78     0  00:46        1.03
  WSF200               JUNCTION     0.65     1.46     6.69     0  00:46        1.45
  HS02004901           JUNCTION     0.66     1.42    11.24     0  00:41        1.42
  HS02004881           JUNCTION     0.55     2.15    11.18     0  00:42        1.90
  HS02004876           JUNCTION     0.67     2.16    11.19     0  00:46        2.16
  HS02004870           JUNCTION     0.57     2.10    11.39     0  00:43        2.04
  HS02004862           JUNCTION     0.57     2.00    11.38     0  00:43        2.00
  HS02004856           JUNCTION     0.61     2.07    11.50     0  00:43        2.03
  HS02004852           JUNCTION     0.55     2.07    11.58     0  00:43        1.97
  HS02004848           JUNCTION     0.53     2.03    11.63     0  00:43        1.91
  HS02004842           JUNCTION     0.84     2.22    11.49     0  00:43        2.22
  HS02004837           JUNCTION     0.56     1.98    11.56     0  00:43        1.92
  HS02004830           JUNCTION     0.63     2.03    11.50     0  00:43        1.99
  HS02004824           JUNCTION     0.67     2.01    11.41     0  00:43        2.01
  HS02004817           JUNCTION     1.15     2.43    11.28     0  00:43        2.41
  HS02004807           JUNCTION     0.83     1.92    11.09     0  00:43        1.92
  HS02004802           JUNCTION     0.83     1.81    10.94     0  00:44        1.80
  HS02004799           JUNCTION     0.90     1.76    10.97     0  00:41        1.76
  HS02004792           JUNCTION     0.69     1.60    11.12     0  00:41        1.60
  HS02004788           JUNCTION     0.51     1.42    11.32     0  00:41        1.42
  HS02004785           JUNCTION     0.55     1.49    11.39     0  00:41        1.49
  HS02004777           JUNCTION     0.68     1.48    11.28     0  00:41        1.48
  HS02004770           JUNCTION     0.66     1.42    11.25     0  00:41        1.42
  HS02004480           JUNCTION     0.81     1.67    10.92     0  00:43        1.64
  HS02004479           JUNCTION     0.85     1.69    10.90     0  00:43        1.67
  HS02004478           JUNCTION     0.72     1.59    10.82     0  00:44        1.58
  HS02004053           JUNCTION     0.31     1.90    10.67     0  00:44        1.09
  HS02004052           JUNCTION     0.39     1.50    11.15     0  00:44        1.38
  HS02004049           JUNCTION     0.23     0.98    11.66     0  00:45        0.86
  HS02004048           JUNCTION     0.53     1.70    12.60     0  00:43        1.70
  HS02004046           JUNCTION     0.48     1.80    13.52     0  00:46        1.80
  HS02004043           JUNCTION     0.29     2.24    14.93     0  00:46        2.20
  HS02004041           JUNCTION     0.16     1.99    17.43     0  00:46        1.17
  HS02004038           JUNCTION     0.14     0.40    19.08     0  00:47        0.40
  HS02004036           JUNCTION     0.00     0.00    22.46     0  00:00        0.00
  HS02004034           JUNCTION     0.00     0.00    26.83     0  00:00        0.00
  HS02004028           JUNCTION     0.18     0.51    37.36     0  00:44        0.51
  HS02004027           JUNCTION     0.14     0.34    36.47     0  00:44        0.33
  HS02004026           JUNCTION     0.14     0.35    35.75     0  00:44        0.34
  HS02004024           JUNCTION     0.15     0.42    34.63     0  00:45        0.41
  HS02004022           JUNCTION     0.20     0.80    33.84     0  00:44        0.80
  HS02004021           JUNCTION     0.23     0.81    32.54     0  00:43        0.81
  HS02004019           JUNCTION     0.29     0.80    31.76     0  00:42        0.80
  HS02004018           JUNCTION     0.19     0.60    33.81     0  00:44        0.60
  HS02004017           JUNCTION     0.17     0.53    34.37     0  00:44        0.53
  HS02004013           JUNCTION     0.11     0.38    35.51     0  00:47        0.38
  HS02004010           JUNCTION     0.05     0.17    38.04     0  00:47        0.17
  HS02003174           JUNCTION     0.20     0.49     6.02     0  00:48        0.49
  HS02003171           JUNCTION     0.21     0.54     6.22     0  00:47        0.54
  HS02003170           JUNCTION     0.25     0.50     6.95     0  00:47        0.50
  HS02003168           JUNCTION     0.13     0.34     6.83     0  00:47        0.34
  HS02003166           JUNCTION     0.24     0.51     6.98     0  00:47        0.51
  HS02003162           JUNCTION     0.19     0.42    30.67     0  00:42        0.42
  HS02003160           JUNCTION     0.15     0.39    28.45     0  00:46        0.39
  HS02003150           JUNCTION     0.16     0.42    26.44     0  00:46        0.42
  HS02003148           JUNCTION     0.19     0.54    22.28     0  00:46        0.54
  HS02003145           JUNCTION     0.25     0.81    14.68     0  00:44        0.81
  HS02003143           JUNCTION     0.35     0.80    13.27     0  00:38        0.80
  HS02003138           JUNCTION     0.24     0.53     7.02     0  01:34        0.53
  HS02003136           JUNCTION     1.42     2.28    10.00     0  00:00        2.28
  HS02003125           JUNCTION     1.55     2.38     9.83     0  00:32        2.29
  HS02003122           JUNCTION     1.60     2.48     9.91     0  00:32        2.39
  HS02003119           JUNCTION     1.36     2.56    10.27     0  00:32        2.20
  HS02003116           JUNCTION     1.04     2.43    10.55     0  00:32        1.82
  HS02003111           JUNCTION     0.47     0.93     9.94     0  00:47        0.92
  HS02003108           JUNCTION     0.38     0.98    10.10     0  00:46        0.92
  HS02003100           JUNCTION     0.27     0.97    10.20     0  00:46        0.87
  HS02003088           JUNCTION     0.23     1.00    10.29     0  00:46        0.88
  HS02003084           JUNCTION     0.10     0.94    10.37     0  00:46        0.77
  HS02003079           JUNCTION     0.07     0.90    10.41     0  00:46        0.70
  HS02003077           JUNCTION     0.02     0.51    10.24     0  00:47        0.50
  HS02003065           JUNCTION     0.65     1.67    10.90     0  00:46        1.66
  HS02003056           JUNCTION     0.69     1.77    10.71     0  00:46        1.77
  HS02003053           JUNCTION     0.49     1.66    10.96     0  00:36        1.65
  HS02003042           JUNCTION     0.35     1.69    11.35     0  00:38        1.43
  HS02003039           JUNCTION     0.39     1.74    11.39     0  00:43        1.52
  HS02003036           JUNCTION     0.23     1.41    11.47     0  00:43        1.41
  HS02003028           JUNCTION     0.35     1.40    11.14     0  00:43        1.40
  HS02003021           JUNCTION     0.37     1.55    10.92     0  00:42        1.49
  HS02003018           JUNCTION     0.38     1.48    10.69     0  00:42        1.48
  HS02003017           JUNCTION     0.39     1.48    10.64     0  00:42        1.48
  HS02003013           JUNCTION     0.38     1.47    10.52     0  00:42        1.42
  HS02003010           JUNCTION     0.40     1.46    10.26     0  00:42        1.30
  HS02003007           JUNCTION     0.35     1.30     9.92     0  00:42        1.09
  HS02003004           JUNCTION     0.43     1.21     9.53     0  00:40        0.98
  HS02003001           JUNCTION     0.12     0.31     8.60     0  00:47        0.31
  YS02001738           JUNCTION     0.00     0.00     8.89     0  00:00        0.00
  YS02001739           JUNCTION     0.00     0.00     8.37     0  00:00        0.00
  YS02001742           JUNCTION     0.00     0.00     8.49     0  00:00        0.00
  YS02001745           JUNCTION     0.15     0.50     8.01     0  00:48        0.46
  YS02001748           JUNCTION     0.20     1.00     8.08     0  00:47        0.95
  YS02001751           JUNCTION     0.22     2.20     9.08     0  00:47        1.10
  YS02001754           JUNCTION     0.26     2.20     8.81     0  00:46        1.32
  YS02001762           JUNCTION     0.47     2.15     8.55     0  00:46        1.78
  YS02001765           JUNCTION     0.45     2.10     8.55     0  00:46        1.77
  YS02001767           JUNCTION     0.47     2.03     8.52     0  00:46        1.81
  YS02001770           JUNCTION     0.53     1.95     8.44     0  00:46        1.91
  YS02001774           JUNCTION     0.60     2.04     8.46     0  00:46        1.96
  YS02001779           JUNCTION     0.35     1.68     8.37     0  00:46        1.68
  YS02001882           JUNCTION     0.80     1.81     8.52     0  00:41        1.67
  YS02001884           JUNCTION     0.89     1.87     8.49     0  00:41        1.77
  YS02001759           JUNCTION     0.47     2.21     8.57     0  00:46        1.75
  YS02001887           JUNCTION     0.97     1.89     8.43     0  00:41        1.85
  YS02001890           JUNCTION     0.99     1.81     8.32     0  00:41        1.81
  YS02001898           JUNCTION     0.76     1.61     8.35     0  00:41        1.56
  YS02001901           JUNCTION     0.86     1.69     8.30     0  00:41        1.67
  YS02001904           JUNCTION     0.84     1.64     8.27     0  00:41        1.63
  YS02001907           JUNCTION     1.16     1.96     8.25     0  00:42        1.96
  YS02001910           JUNCTION     0.99     2.06     8.57     0  00:42        2.01
  YS02001915           JUNCTION     0.83     2.00     8.72     0  00:41        2.00
  YS02001918           JUNCTION     0.56     1.81     8.88     0  00:42        1.81
  YS02001920           JUNCTION     0.65     2.13     9.14     0  00:44        2.07
  YS02001923           JUNCTION     0.47     2.03     9.29     0  00:44        2.00
  YS02001926           JUNCTION     0.47     1.90     9.35     0  00:44        1.70
  YS02001929           JUNCTION     0.32     1.78     9.47     0  00:44        1.41
  YS02001932           JUNCTION     0.23     1.77     9.57     0  00:44        1.34
  YS02001935           JUNCTION     0.17     1.75     9.68     0  00:44        1.24
  YS02001757           JUNCTION     0.44     2.10     8.36     0  00:46        1.62
  YS02001895           JUNCTION     0.76     1.63     8.38     0  00:41        1.56
  YS02005679           JUNCTION     0.00     0.00    10.24     0  00:00        0.00
  YS02005559           JUNCTION     0.05     0.12    10.07     0  00:47        0.12
  YS02005651           JUNCTION     0.06     0.16    10.93     0  00:47        0.16
  YS02005670           JUNCTION     0.07     0.20    10.65     0  00:46        0.20
  YS02005547           JUNCTION     0.03     0.10    10.64     0  00:46        0.10
  YS02005549           JUNCTION     0.05     0.14    11.05     0  00:46        0.14
  YS02005550           JUNCTION     0.06     0.15    10.78     0  00:46        0.15
  YS02005551           JUNCTION     0.03     0.09    10.46     0  00:46        0.09
  YS02005553           JUNCTION     0.06     0.15    10.51     0  00:47        0.15
  YS02005554           JUNCTION     0.03     0.08    10.32     0  00:47        0.08
  YS02005556           JUNCTION     0.06     0.15    10.21     0  00:48        0.15
  YS02005557           JUNCTION     0.03     0.08    10.05     0  00:48        0.08
  YS02005560           JUNCTION     0.04     0.09     9.83     0  00:48        0.09
  YS02005562           JUNCTION     0.06     0.15     9.88     0  00:48        0.15
  YS02005563           JUNCTION     0.04     0.08     9.75     0  00:48        0.08
  YS02005565           JUNCTION     0.06     0.13     9.84     0  00:48        0.13
  YS02005566           JUNCTION     0.05     0.11     9.50     0  00:48        0.11
  YS02005568           JUNCTION     0.06     0.15     9.65     0  00:48        0.15
  YS02005569           JUNCTION     0.05     0.12     9.44     0  00:48        0.12
  YS02005598           JUNCTION     0.21     1.07    10.91     0  00:43        1.07
  YS02005600           JUNCTION     0.21     1.02    10.68     0  00:43        1.02
  YS02005602           JUNCTION     0.47     2.15    10.43     0  00:43        2.15
  YS02005603           JUNCTION     0.15     1.23     9.35     0  00:43        0.58
  YS02005609           JUNCTION     0.07     0.17     9.06     0  00:47        0.17
  YS02005653           JUNCTION     0.09     0.59    11.56     0  00:46        0.44
  YS02005654           JUNCTION     0.11     0.55    11.30     0  00:46        0.40
  YS02005655           JUNCTION     0.05     0.13    10.76     0  00:47        0.13
  YS02005595           JUNCTION     0.29     1.36    11.04     0  00:42        1.36
  YS02005658           JUNCTION     0.09     0.26    11.17     0  00:47        0.26
  YS02005659           JUNCTION     0.05     0.13    10.79     0  00:47        0.13
  YS02005661           JUNCTION     0.12     0.50    11.21     0  00:45        0.44
  YS02005662           JUNCTION     0.05     0.12    10.74     0  00:47        0.12
  YS02005664           JUNCTION     0.13     0.49    11.08     0  00:47        0.49
  YS02005665           JUNCTION     0.05     0.12    10.68     0  00:47        0.12
  YS02005668           JUNCTION     0.05     0.14    10.30     0  00:47        0.14
  YS02005667           JUNCTION     0.30     0.86    10.88     0  00:47        0.86
  YS02005571           JUNCTION     0.16     0.42     9.90     0  00:46        0.38
  YS02005572           JUNCTION     0.11     0.22     9.58     0  00:49        0.22
  YS02005576           JUNCTION     0.09     0.19     9.95     0  00:49        0.19
  YS02005577           JUNCTION     0.08     0.17     9.66     0  00:49        0.17
  YS02005579           JUNCTION     0.09     0.23     9.86     0  00:47        0.23
  YS02005580           JUNCTION     0.06     0.16     9.69     0  00:47        0.15
  YS02005582           JUNCTION     0.09     0.26    10.34     0  00:47        0.26
  YS02005583           JUNCTION     0.06     0.16    10.15     0  00:47        0.16
  YS02005612           JUNCTION     0.34     0.94     9.07     0  00:47        0.94
  YS02005615           JUNCTION     0.05     0.13    11.62     0  00:46        0.13
  YS02005616           JUNCTION     0.04     0.11    10.93     0  00:46        0.11
  YS02005618           JUNCTION     0.08     0.22    11.08     0  00:46        0.22
  YS02005619           JUNCTION     0.05     0.13    10.68     0  00:46        0.13
  YS02005621           JUNCTION     0.09     0.27    11.38     0  00:46        0.26
  YS02005622           JUNCTION     0.04     0.11    11.07     0  00:46        0.11
  YS02005625           JUNCTION     0.04     0.09    11.11     0  00:46        0.09
  YS02005627           JUNCTION     0.10     0.35    11.28     0  00:46        0.32
  YS02005628           JUNCTION     0.04     0.10    11.01     0  00:46        0.10
  YS02005630           JUNCTION     0.10     0.36    11.43     0  00:46        0.34
  YS02005631           JUNCTION     0.05     0.12    11.00     0  00:47        0.12
  YS02005633           JUNCTION     0.09     0.27    11.39     0  00:47        0.27
  YS02005634           JUNCTION     0.05     0.13    10.97     0  00:47        0.13
  YS02005636           JUNCTION     0.10     0.45    11.45     0  00:45        0.42
  YS02005637           JUNCTION     0.06     0.15    10.92     0  00:47        0.15
  YS02005639           JUNCTION     0.09     0.29    10.92     0  00:47        0.29
  YS02005640           JUNCTION     0.06     0.15    10.48     0  00:47        0.15
  YS02005642           JUNCTION     0.07     0.21    11.03     0  00:47        0.20
  YS02005644           JUNCTION     0.16     0.87    11.98     0  00:46        0.87
  YS02005645           JUNCTION     0.08     0.22    11.03     0  00:46        0.22
  YS02005647           JUNCTION     0.18     0.98    11.87     0  00:47        0.97
  YS02005648           JUNCTION     0.08     0.22    11.01     0  00:47        0.22
  YS02005650           JUNCTION     0.11     0.51    11.40     0  00:45        0.43
  YS02005671           JUNCTION     0.04     0.10    10.32     0  00:47        0.10
  YS02005673           JUNCTION     0.08     0.21    10.57     0  00:47        0.21
  YS02005674           JUNCTION     0.05     0.14    10.03     0  00:47        0.14
  YS02005676           JUNCTION     0.00     0.00    10.24     0  00:00        0.00
  YS02005680           JUNCTION     0.05     0.12    10.22     0  00:47        0.12
  YS02005682           JUNCTION     0.00     0.00    10.06     0  00:00        0.00
  YS02005683           JUNCTION     0.03     0.08     9.97     0  00:47        0.08
  YS02005376           JUNCTION     0.59     1.01    11.10     0  00:30        1.01
  YS02005378           JUNCTION     1.13     1.63    11.15     0  00:30        1.62
  YS02005381           JUNCTION     1.05     1.57    11.20     0  00:30        1.57
  YS02005624           JUNCTION     0.22     0.46    11.34     0  00:46        0.45
  YS02005384           JUNCTION     0.34     0.79    10.44     0  00:30        0.53
  YS02005677           JUNCTION     0.05     0.14    10.22     0  00:46        0.14
  YSB1105              JUNCTION     0.23     0.51     9.99     0  00:45        0.50
  YSB1106              JUNCTION     0.27     1.83    11.67     0  00:45        0.83
  YSB1109              JUNCTION     0.34     1.81    11.75     0  00:45        1.07
  YSB1112              JUNCTION     0.35     1.95    12.08     0  00:45        1.31
  YSB1115              JUNCTION     0.33     1.90    12.20     0  00:45        1.29
  YSB1118              JUNCTION     0.35     1.80    12.34     0  00:45        1.44
  YSB1121              JUNCTION     0.42     1.70    12.37     0  00:45        1.70
  YSB1124              JUNCTION     0.28     1.60    12.43     0  00:45        1.54
  YSB1128              JUNCTION     0.44     1.85    12.43     0  00:41        1.49
  YSB1132              JUNCTION     0.49     1.90    12.35     0  00:41        1.62
  YSB1228              JUNCTION     0.05     0.15    10.99     0  00:46        0.15
  YSB1202              JUNCTION     0.40     1.50    12.39     0  00:42        1.46
  YSB1135              JUNCTION     0.62     2.00    12.26     0  00:41        1.81
  YSB1138              JUNCTION     0.71     1.90    12.07     0  00:41        1.90
  YSB1141              JUNCTION     0.74     1.95    11.78     0  00:41        1.85
  YSB1145              JUNCTION     0.74     1.94    11.63     0  00:41        1.84
  YSB1148              JUNCTION     0.79     1.96    11.45     0  00:41        1.89
  YSB1151              JUNCTION     0.97     2.04    11.27     0  00:41        2.00
  YSB1154              JUNCTION     1.12     2.10    11.16     0  00:41        2.10
  YSB1198              JUNCTION     0.21     1.60    12.39     0  00:42        1.18
  YSB1192              JUNCTION     0.39     1.90    12.17     0  00:42        1.69
  YSB6556              JUNCTION     0.94     1.80    10.97     0  00:41        1.80
  YSB1205              JUNCTION     0.56     1.65    12.35     0  00:43        1.65
  YSB1209              JUNCTION     0.55     1.65    12.22     0  00:43        1.60
  YSB1212              JUNCTION     0.46     1.60    12.13     0  00:43        1.45
  YSB1215              JUNCTION     0.45     1.70    12.05     0  00:43        1.44
  YSB1218              JUNCTION     0.43     1.75    11.94     0  00:43        1.42
  YSB1221              JUNCTION     0.45     1.89    11.86     0  00:43        1.31
  YSB1224              JUNCTION     0.44     1.39    11.24     0  00:43        1.14
  YSB1195              JUNCTION     0.34     1.90    12.28     0  00:42        1.59
  YSB1189              JUNCTION     0.49     1.80    11.96     0  00:42        1.80
  YSB1186              JUNCTION     0.54     1.94    11.81     0  00:42        1.74
  YSB1183              JUNCTION     0.67     2.05    11.64     0  00:42        1.88
  YSB1180              JUNCTION     0.69     1.95    11.46     0  00:42        1.83
  YSB1177              JUNCTION     0.94     2.05    11.24     0  00:42        2.01
  YSB1174              JUNCTION     1.00     1.95    11.06     0  00:42        1.95
  YSB1171              JUNCTION     1.16     1.95    10.85     0  00:41        1.95
  YS02006553           JUNCTION     1.16     2.02     8.30     0  00:42        1.99
  YS02006561           JUNCTION     0.42     1.24     7.90     0  00:42        0.93
  YS02006562           JUNCTION     0.93     1.90     8.41     0  00:42        1.80
  YS02006556           JUNCTION     1.12     2.06     8.37     0  00:42        1.98
  YS02006558           JUNCTION     1.16     2.13     8.40     0  00:42        2.04
  YS6132               JUNCTION     0.58     3.04    10.36     0  00:49        2.56
  YS6137               JUNCTION     0.31     2.57    10.36     0  00:52        2.53
  YS6189               JUNCTION     0.42     2.73    10.52     0  00:49        2.69
  YS6184               JUNCTION     0.42     2.65    10.54     0  00:49        2.24
  YS6179               JUNCTION     0.37     2.60    10.58     0  00:49        1.96
  YS6176               JUNCTION     0.27     2.40    10.60     0  00:49        1.81
  YS6171               JUNCTION     0.29     2.10    10.51     0  00:46        1.87
  YS6168               JUNCTION     0.31     2.00    10.51     0  00:46        2.00
  YS6164               JUNCTION     0.13     1.90    10.63     0  00:46        1.78
  YS6162               JUNCTION     0.18     2.10    10.75     0  00:46        1.85
  YS6187               JUNCTION     0.46     2.75    10.53     0  00:49        2.66
  YS6363               JUNCTION     0.35     3.05    10.84     0  00:51        2.40
  YS6360               JUNCTION     0.47     2.88    10.68     0  00:51        2.50
  YS6354               JUNCTION     0.46     2.60    10.75     0  00:49        2.54
  YS6351               JUNCTION     0.55     2.50    10.71     0  00:46        2.50
  YS6350               JUNCTION     0.61     2.50    10.72     0  00:45        2.50
  YS6348               JUNCTION     0.56     2.45    10.85     0  00:44        2.45
  YS6344               JUNCTION     0.38     2.35    10.94     0  00:54        2.26
  YS6375               JUNCTION     0.07     0.28     8.71     0  00:46        0.28
  YS6377               JUNCTION     0.14     0.35     8.71     0  00:47        0.35
  YS6381               JUNCTION     0.15     0.40     8.53     0  00:47        0.40
  YS6386               JUNCTION     0.17     0.47     8.45     0  00:47        0.47
  YS6390               JUNCTION     0.39     0.61     8.30     0  00:47        0.61
  YS6394               JUNCTION     0.10     0.24     8.16     0  00:48        0.24
  YS6404               JUNCTION     0.54     3.00    10.23     0  00:45        1.79
  YS6401               JUNCTION     0.18     0.42     7.64     0  00:49        0.41
  YS02004319           JUNCTION     0.29     1.18    20.80     0  00:41        1.18
  YS02004320           JUNCTION     0.00     0.00    22.64     0  00:56        0.00
  YS02004321           JUNCTION     0.00     0.00    26.80     0  00:51        0.00
  YS02004307           JUNCTION     0.17     0.52    11.05     0  00:46        0.52
  YS02004309           JUNCTION     0.75     1.55    13.07     0  00:33        1.55
  YS02004312           JUNCTION     0.46     1.48    14.91     0  00:40        1.48
  YS02004314           JUNCTION     0.34     1.28    16.99     0  00:41        1.28
  YS02004316           JUNCTION     0.34     1.36    19.13     0  00:41        1.36
  YS02001783           JUNCTION     0.64     1.49     7.64     0  00:42        1.26
  YS02001784           JUNCTION     0.62     1.28     7.35     0  00:42        1.15
  YS02001786           JUNCTION     0.50     1.04     7.07     0  00:42        0.90
  YS02001788           JUNCTION     0.37     0.63     6.60     0  00:45        0.63
  YS02001790           JUNCTION     0.42     0.73     6.38     0  00:45        0.72
  YS02001791           JUNCTION     0.26     0.44     5.91     0  00:45        0.44
  YS02001793           JUNCTION     0.13     0.29     5.12     0  00:46        0.29
  YS02003309           JUNCTION     0.68     1.21     9.77     0  00:27        1.05
  YS02003306           JUNCTION     0.80     1.16     9.60     0  00:27        1.16
  YS02003269           JUNCTION     0.14     0.17     7.76     0  00:41        0.17
  YS02003272           JUNCTION     0.40     1.37     9.10     0  00:28        0.58
  YS02003278           JUNCTION     0.80     1.24     9.16     0  00:28        1.21
  YS02003281           JUNCTION     0.89     1.39     9.47     0  00:41        1.39
  YS02003284           JUNCTION     0.98     1.40     9.41     0  00:28        1.40
  YS02003287           JUNCTION     0.93     1.27     9.34     0  00:28        1.27
  YS02003290           JUNCTION     0.79     1.12     9.41     0  00:28        1.10
  YS02003294           JUNCTION     0.94     1.24     9.42     0  00:28        1.24
  YS02003275           JUNCTION     0.60     1.19     9.09     0  00:28        0.92
  YS02003297           JUNCTION     0.92     1.22     9.43     0  00:28        1.22
  YS02003300           JUNCTION     0.86     1.15     9.42     0  00:27        1.15
  YS02003303           JUNCTION     0.85     1.14     9.46     0  00:27        1.14
  YSB1227              JUNCTION     0.01     0.09    10.99     0  00:46        0.09
  CaochengRainPumpOutfall1 OUTFALL      0.00     0.00     6.00     0  00:00        0.00
  JiankangRainPumpOutfall2 OUTFALL      0.00     0.00     6.00     0  00:00        0.00
  JiankangRainPumpOutfall1 OUTFALL      0.00     0.00     6.00     0  00:00        0.00
  CaochengRainPumpOutfall2 OUTFALL      0.00     0.00     6.00     0  00:00        0.00
  YS02005684           OUTFALL      0.03     0.08     8.48     0  00:47        0.08
  YS02005681           OUTFALL      0.05     0.12     9.34     0  00:47        0.12
  YS02005678           OUTFALL      0.05     0.14     8.67     0  00:46        0.14
  YS02005675           OUTFALL      0.05     0.14     8.67     0  00:47        0.14
  YS02005672           OUTFALL      0.04     0.10     8.43     0  00:47        0.10
  YS02005669           OUTFALL      0.05     0.14     8.86     0  00:47        0.14
  YS02005666           OUTFALL      0.05     0.12     8.80     0  00:47        0.12
  YS02005663           OUTFALL      0.05     0.12     8.85     0  00:47        0.12
  YS02005660           OUTFALL      0.05     0.13     8.95     0  00:47        0.13
  YS02005657           OUTFALL      0.00     0.00     8.74     0  00:00        0.00
  YS02005652           OUTFALL      0.06     0.16     8.78     0  00:47        0.16
  YS02005649           OUTFALL      0.08     0.22     8.92     0  00:47        0.22
  YS02005646           OUTFALL      0.08     0.22     8.22     0  00:46        0.22
  YS02005643           OUTFALL      0.07     0.20     8.76     0  00:47        0.20
  YS02005641           OUTFALL      0.06     0.15     8.85     0  00:47        0.15
  YS02005638           OUTFALL      0.06     0.15     8.81     0  00:47        0.15
  YS02005635           OUTFALL      0.05     0.13     8.79     0  00:47        0.13
  YS02005632           OUTFALL      0.05     0.12     8.68     0  00:47        0.12
  YS02005629           OUTFALL      0.04     0.10     8.58     0  00:46        0.10
  YS02005626           OUTFALL      0.04     0.09     8.62     0  00:46        0.09
  YS02005623           OUTFALL      0.04     0.11     8.58     0  00:46        0.11
  YS02005620           OUTFALL      0.05     0.13     8.93     0  00:46        0.13
  YS02005617           OUTFALL      0.04     0.11     8.95     0  00:46        0.11
  YSB1103              OUTFALL      0.23     0.60     8.60     0  00:45        0.60
  YSB1229              OUTFALL      0.05     0.15     8.95     0  00:46        0.15
  YS02005548           OUTFALL      0.03     0.10     9.09     0  00:46        0.10
  YS02005552           OUTFALL      0.03     0.09     8.72     0  00:47        0.09
  YS02005555           OUTFALL      0.03     0.08     8.81     0  00:47        0.08
  YS02005558           OUTFALL      0.03     0.08     8.78     0  00:48        0.08
  YS02005561           OUTFALL      0.04     0.09     8.77     0  00:48        0.09
  YS02005564           OUTFALL      0.04     0.08     8.56     0  00:48        0.08
  YS02005567           OUTFALL      0.05     0.11     8.65     0  00:48        0.11
  YS02005570           OUTFALL      0.05     0.12     8.83     0  00:48        0.12
  YS02005574           OUTFALL      0.11     0.22     9.06     0  00:49        0.22
  YS02005578           OUTFALL      0.08     0.17     8.95     0  00:49        0.17
  WS02005134           OUTFALL      0.00     0.00     8.74     0  00:00        0.00
  YS02005581           OUTFALL      0.06     0.15     8.95     0  00:47        0.15
  YS02005584           OUTFALL      0.06     0.16     9.12     0  00:47        0.16
  YS02005593           OUTFALL      0.22     0.28     9.00     0  00:41        0.28
  YS02005596           OUTFALL      0.14     0.30     8.84     0  00:42        0.30
  YS02005374           OUTFALL      0.12     0.30     8.54     0  00:43        0.30
  YS02005375           OUTFALL      0.13     0.30     8.69     0  00:42        0.30
  YS02005607           OUTFALL      0.12     0.30     7.53     0  00:43        0.30
  YS02005610           OUTFALL      0.07     0.17     8.78     0  00:47        0.17
  YS02005613           OUTFALL      0.12     0.29     8.57     0  00:47        0.29
  HS02003172           OUTFALL      0.19     0.49     5.94     0  00:48        0.49
  YS6395               OUTFALL      0.10     0.24     6.66     0  00:48        0.24
  YS6405               OUTFALL      0.17     0.41     3.86     0  00:49        0.40
  WSC                  OUTFALL      0.60     0.80     5.00     0  00:37        0.80
  JiankangQianchi      STORAGE      2.81     4.21     5.01     0  01:08        4.20
  CaochengTiaoxuchi    STORAGE      0.89     1.40     6.90     0  00:59        1.40
  XierchiQianchi       STORAGE      7.02     7.47     5.47     0  02:02        7.47
  
  
  *******************
  Node Inflow Summary
  *******************
  
  -------------------------------------------------------------------------------------------------
                                  Maximum  Maximum                  Lateral       Total        Flow
                                  Lateral    Total  Time of Max      Inflow      Inflow     Balance
                                   Inflow   Inflow   Occurrence      Volume      Volume       Error
  Node                 Type           LPS      LPS  days hr:min    10^6 ltr    10^6 ltr     Percent
  -------------------------------------------------------------------------------------------------
  WS02001211           JUNCTION      7.35   242.31     0  00:42      0.0541        1.19       4.108
  WS02001212           JUNCTION      0.00   251.69     0  00:43           0        1.15       2.273
  WS02001213           JUNCTION      0.00   255.13     0  00:43           0        1.14       3.159
  WS02003069           JUNCTION      0.32  2521.15     0  00:47     0.00235        10.6       0.642
  WS02003072           JUNCTION      0.00  2521.11     0  00:47           0        10.6       0.556
  WS02003073           JUNCTION      1.82  3088.41     0  00:47      0.0134        13.9       0.272
  WS02003076           JUNCTION      0.00  3088.49     0  00:47           0        13.9       0.294
  WS02003060           JUNCTION     16.53  2521.14     0  00:47       0.122        10.7       0.522
  WS02003066           JUNCTION      0.00  2334.95     0  00:46           0        9.56       0.103
  WS02003059           JUNCTION      0.00   279.11     0  00:43           0        1.14       4.992
  WS02003115           JUNCTION      0.00   477.11     0  00:59           0        1.14       0.392
  WS02003116           JUNCTION      0.00   270.60     0  00:24           0        1.11       0.750
  WS02003118           JUNCTION      0.06   238.81     0  00:31    1.91e-06         1.1       1.357
  WS02003215           JUNCTION      0.18  2295.26     0  00:47    2.03e-05        2.96       0.904
  WS02003110           JUNCTION      0.18   461.48     0  00:47     0.00132       0.615       1.209
  WS02003111           JUNCTION      1.52   939.95     0  00:47      0.0107        1.67       0.423
  WS02005155           JUNCTION      0.38   461.19     0  00:47      0.0028       0.614       1.599
  WS02005154           JUNCTION    460.80   460.80     0  00:47        0.61       0.612       0.978
  WS02005193           JUNCTION      0.00   183.12     0  00:28           0      0.0151     139.467
  WS02005196           JUNCTION      0.00   152.63     0  00:28           0     0.00561     608.601
  WS02003067           JUNCTION      0.00  1869.75     0  00:46           0        7.55       0.187
  WS02004401           JUNCTION      0.00  1093.54     0  01:27           0        5.66       0.557
  WS02004402           JUNCTION      0.00  1093.66     0  01:29           0        5.64       0.495
  WS02004403           JUNCTION      0.00  1094.08     0  01:29           0        5.62       0.429
  WS02004404           JUNCTION      0.16  1094.57     0  01:29     0.00119         5.6       0.296
  WS02004406           JUNCTION      0.00  1094.67     0  01:29           0        5.58       0.734
  WS02004409           JUNCTION      0.19  1828.65     0  00:44    0.000167        8.19       0.425
  WS02004410           JUNCTION      0.00  1869.94     0  00:46           0        8.26       0.429
  WS02004411           JUNCTION      0.00  1869.58     0  00:46           0        7.66       0.447
  WS02004412           JUNCTION      0.00  1869.66     0  00:46           0        7.63       0.445
  WS02004413           JUNCTION      0.00  1869.65     0  00:46           0        7.59       0.575
  WS02004405           JUNCTION      0.17  1094.53     0  01:29    0.000433         5.6       0.434
  WS02006109           JUNCTION      1.95  1308.01     0  00:00     0.00973        6.52       0.345
  WS02006110           JUNCTION      0.34  1093.06     0  01:27    0.000242        5.82      -0.336
  WS02006111           JUNCTION      0.04  1176.04     0  00:00     1.2e-05        5.81      -0.306
  WS02006112           JUNCTION      0.48  2307.30     0  00:00    2.49e-05        5.83       0.283
  WS02006113           JUNCTION      0.06  1093.23     0  01:27    2.11e-05         5.8      -0.365
  WS02006115           JUNCTION      0.00  1366.62     0  00:00           0        5.71       0.575
  WS02006116           JUNCTION      0.27  1093.62     0  01:29    0.000332        5.68       0.478
  WS02006230           JUNCTION     10.44  1028.03     0  00:44      0.0756        3.24       0.503
  WS02006231           JUNCTION      0.53   453.42     0  01:15     0.00138        1.92       0.856
  WS02006232           JUNCTION      0.24   453.53     0  01:14    9.68e-05        1.93       0.934
  WS02006234           JUNCTION      0.12   453.30     0  01:14    3.58e-06        1.94       0.631
  WS02006235           JUNCTION      0.27   415.08     0  00:56    0.000488        2.03       0.539
  WS02006238           JUNCTION      0.00   415.35     0  00:56           0        1.98       0.372
  WS02006240           JUNCTION      0.00   414.95     0  00:56           0        2.01       0.823
  WS02006242           JUNCTION      0.23   415.02     0  00:56    8.73e-05        2.03       0.970
  WS02006243           JUNCTION      0.61   287.05     0  00:26     0.00134        1.53       1.056
  WS02006245           JUNCTION      0.00   295.15     0  00:26           0        1.54       0.866
  WS02006247           JUNCTION      0.00   307.44     0  00:27           0        1.55       0.771
  WS02006248           JUNCTION      0.00   347.40     0  00:36           0        1.91       0.580
  WS02006249           JUNCTION      0.00  1386.89     0  00:47           0        5.08       0.329
  WS02006239           JUNCTION      0.00   415.16     0  00:56           0        1.99       0.635
  WS02006251           JUNCTION      0.08  1740.28     0  00:47    0.000567        5.35       0.343
  WS02006252           JUNCTION      0.00   753.82     0  00:47           0        1.95      -0.028
  WS02006253           JUNCTION     54.75  1740.03     0  00:47      0.0702        4.23       0.480
  WS02006256           JUNCTION      0.00   300.00     0  00:32           0        1.63       0.063
  WS02004138           JUNCTION      0.00   190.00     0  00:29           0        1.18       0.255
  WS02004139           JUNCTION      0.32   190.84     0  00:43     0.00236        1.18       3.414
  WS02004407           JUNCTION      0.09  1828.15     0  00:44    0.000115        8.25       0.322
  WS02006228           JUNCTION      1.24  1289.65     0  00:45     0.00098         6.5       0.235
  WS02006229           JUNCTION      0.98  2307.60     0  00:45    0.000836         9.5       0.267
  WS02006280           JUNCTION      0.25  2307.20     0  00:45    0.000383         9.3       0.030
  WS02006284           JUNCTION      0.18  2307.33     0  00:45    0.000744        9.32       0.139
  WS02006287           JUNCTION      0.20  2307.30     0  00:44    8.57e-05        9.32       0.099
  WS02003091           JUNCTION      0.49  1200.35     0  00:00    0.000995        3.49      -1.128
  WS02003203           JUNCTION      0.34  2264.56     0  00:00    0.000132        5.34       0.187
  WS6145               JUNCTION      0.30   232.70     0  00:44    0.000444      0.0905       0.376
  WS6147               JUNCTION      0.00   233.52     0  00:44           0      0.0794       0.238
  WS6150               JUNCTION      0.18   234.44     0  00:44    0.000512      0.0685       0.483
  WS6152               JUNCTION      0.58   240.63     0  00:44     0.00424      0.0575       0.728
  WS6155               JUNCTION      0.01   237.12     0  00:44    4.03e-05      0.0425       0.434
  WS6156               JUNCTION      0.74   234.43     0  00:45     0.00384      0.0314       0.347
  WS6136               JUNCTION      0.19   730.77     0  00:44    4.81e-05        1.63       0.049
  WS6140               JUNCTION      0.21   232.65     0  00:44    0.000142       0.111       0.121
  WS6142               JUNCTION      0.23   232.22     0  00:44    0.000177       0.101       0.210
  WS6325               JUNCTION      0.22   137.61     0  00:43    0.000203      0.0889       2.094
  WS6327               JUNCTION      0.17   137.44     0  00:43    0.000499      0.0788       0.179
  WS6329               JUNCTION      0.48   137.76     0  00:43     0.00188       0.068       0.176
  WS6332               JUNCTION      0.33   137.75     0  00:43    0.000761      0.0552       0.185
  WS6158               JUNCTION      1.76   257.88     0  00:45       0.012      0.0156      -0.771
  WS6335               JUNCTION      0.66   138.12     0  00:43     0.00365      0.0432       0.335
  WS6338               JUNCTION      0.41   138.24     0  00:43     0.00111      0.0282       0.104
  WS6340               JUNCTION      0.27   139.18     0  00:43    0.000187      0.0155       0.167
  WS6342               JUNCTION      0.63   146.11     0  00:44     0.00313     0.00622      -1.228
  WS6135               JUNCTION      0.12   730.40     0  00:44    3.24e-05        1.71       0.428
  WS6396               JUNCTION      0.26   547.58     0  00:55    2.23e-05        1.62       0.177
  WS6399               JUNCTION      0.08   547.50     0  00:55    0.000114        1.61       0.066
  WS02003082           JUNCTION      0.50   590.34     0  00:39     0.00151        3.45       0.526
  WS02003077           JUNCTION      0.60   590.98     0  00:39     0.00442        3.41       0.213
  WS02003080           JUNCTION      0.00   590.38     0  00:39           0        3.42       0.439
  WS02003083           JUNCTION      0.00   590.29     0  00:39           0        3.46       0.258
  WS02003084           JUNCTION      0.04   590.26     0  00:39    0.000324        3.47       0.270
  WS02003085           JUNCTION      0.00   590.15     0  00:39           0        3.47       0.177
  WS02003086           JUNCTION      0.49   655.05     0  00:01     0.00361        3.49       0.428
  WS02003087           JUNCTION      0.00  1086.59     0  00:00           0         3.5       0.303
  WS02003088           JUNCTION      0.55  2146.84     0  00:00     0.00165        3.53       0.396
  WS02003089           JUNCTION      0.27  1590.77     0  00:00    0.000376        3.52      -0.265
  WS02003090           JUNCTION      0.41  1113.92     0  00:00    0.000575        3.49      -0.682
  WS02003081           JUNCTION      0.16   590.26     0  00:39    6.04e-05        3.43       0.414
  WS02003122           JUNCTION      0.00   238.88     0  00:31           0        1.08       1.388
  WS02003187           JUNCTION    651.66   828.70     0  00:48       0.964           2       0.651
  WS02003188           JUNCTION      0.48   403.49     0  00:54     0.00116        1.71       0.722
  WS02003190           JUNCTION      0.00   608.64     0  00:54           0        2.52       0.537
  WS02003193           JUNCTION    961.68  1212.88     0  00:47        1.38        2.33       0.755
  WS02003195           JUNCTION      0.31   305.96     0  00:01    0.000638        1.06       1.440
  WS02003196           JUNCTION      0.00   382.45     0  00:01           0        1.05       1.333
  WS02003198           JUNCTION    144.70   455.44     0  00:01       0.204        1.07       1.604
  WS02003200           JUNCTION      4.22   651.61     0  00:01      0.0289       0.882      -0.914
[...]
  WS02003091WS02003090        1.72      1.73      1.77      0.01         0.01
  WS02003090WS02003089        1.74      1.74      1.76      1.82         0.01
  WS02003089WS02003088        1.74      1.75      1.76      1.68         1.68
  WS02003088WS02003087        1.76      1.78      1.76      1.82         1.76
  WS02003087WS02003086        1.70      1.70      1.78      1.76         0.01
  WS02003086WS02003085        1.70      1.70      1.74      1.80         0.01
  WS02003085WS02003084        1.70      1.71      1.71      1.72         1.70
  WS02003084WS02003083        1.70      1.71      1.70      1.89         1.70
  WS02003083WS02003082        1.69      1.69      1.72      1.79         0.01
  WS02003082WS02003081        1.68      1.68      1.68      1.78         1.68
  WS02003081WS02003080        1.68      1.68      1.68      1.69         1.68
  WS02003080WS02003077        0.64      0.64      1.68      1.68         0.01
  WS02003073WS02003076        0.75      0.75      1.46      0.29         0.01
  HS02004901HS02004770        0.65      0.65      0.65      0.01         0.01
  HS02004876HS02004881        0.70      0.72      0.70      1.63         0.70
  HS02004870HS02004876        0.64      0.64      0.72      0.01         0.01
  HS02004049HS02004052        0.20      0.20      0.23      0.01         0.01
  HS02004048HS02004049        0.31      0.43      0.31      0.50         0.31
  HS02004046HS02004048        0.21      0.21      0.43      0.01         0.01
  HS02004043HS02004046        0.17      0.17      0.24      0.07         0.07
  HS02004041HS02004043        0.04      0.04      0.16      0.01         0.01
  HS02004038HS02004041        0.01      0.01      0.04      0.01         0.01
  HS02004028HS02004027        0.01      0.10      0.01      0.12         0.01
  HS02003143HS02003065        0.52      0.52      0.75      0.01         0.01
  HS02004842HS02004848        0.54      0.54      0.76      0.01         0.01
  HS02004837HS02004842        0.58      0.58      0.76      0.01         0.01
  HS02004830HS02004837        0.58      0.58      0.64      0.01         0.01
  HS02004824HS02004830        0.64      0.64      0.68      0.01         0.01
  HS02004817HS02004824        0.68      0.68      1.56      0.01         0.01
  HS02004770HS02004777        0.65      0.65      0.66      0.01         0.01
  HS02004799HS02004480        0.84      0.84      0.90      0.86         0.01
  HS02004792HS02004799        0.77      0.77      0.90      0.01         0.01
  HS02004788HS02004792        0.60      0.60      0.77      0.01         0.01
  HS02004785HS02004788        0.60      0.61      0.60      1.37         0.53
  HS02004777HS02004785        0.61      0.61      0.66      0.01         0.01
  HS02004480HS02004478        0.79      0.84      0.79      1.69         0.79
  HS02004479HS02004480        0.84      0.84      0.88      0.01         0.01
  HS02003013HS02003010        0.42      0.42      0.48      0.28         0.28
  HS02003010HS02003007        0.40      0.41      0.42      0.46         0.40
  HS02003007HS02003004        0.42      0.42      0.49      0.24         0.24
  HS02003004HS02003001        0.01      0.49      0.01      1.17         0.01
  HS02003065HS02003056        0.73      0.73      0.88      0.01         0.01
  HS02003042HS02003053        0.36      0.36      0.69      0.01         0.01
  HS02003028HS02003021        0.28      0.28      0.36      0.01         0.01
  HS02003021HS02003018        0.39      0.39      0.40      0.15         0.15
  HS02003018HS02003017        0.41      0.41      0.41      0.08         0.08
  HS02003017HS02003013        0.41      0.41      0.42      0.34         0.32
  HS02004862HS02004870        0.60      0.60      0.64      0.18         0.16
  HS02004848HS02004852        0.54      0.54      0.58      0.02         0.01
  HS02004856HS02004862        0.55      0.55      0.60      0.01         0.01
  HS02004852HS02004856        0.58      0.58      0.60      0.02         0.01
  HS02004024HS02004022        0.01      0.01      0.13      0.01         0.01
  HS02004022HS02004021        0.13      0.13      0.22      0.01         0.01
  HS02004021HS02004019        0.22      0.22      0.29      0.16         0.16
  HS02004019HS02003162        0.01      0.29      0.01      0.31         0.01
  HS02004052HS02004053        0.22      0.23      0.22      0.24         0.22
  HS02003122HS02003125        1.52      1.52      1.52      0.18         0.20
  HS02003119HS02003122        1.51      1.51      1.52      0.01         0.01
  HS02003116HS02003119        1.21      1.21      1.50      0.01         0.01
  HS02003111HS02003116        0.01      0.01      1.29      0.01         0.01
  HS02004018HS02004019        0.15      0.15      0.29      0.01         0.01
  HS02003056HS02003136        0.76      0.76      1.54      0.01         0.01
  HS02004017HS02004018        0.12      0.12      0.15      0.01         0.01
  HS02004013HS02004017        0.01      0.01      0.12      0.01         0.01
  HS02004802HS02004478        0.80      0.80      0.86      0.21         0.01
  HS02004478WS02006287        0.66      0.66      0.84      0.01         0.01
  HS02003079HS02003084        0.02      0.02      0.04      0.01         0.01
  HS02003148HS02003145        0.01      0.01      0.18      0.04         0.01
  HS02003145HS02003143        0.18      0.18      0.49      0.16         0.15
  HS02003136WS02003203        1.55      1.55      1.65      0.01         0.01
  HS02003084HS02003088        0.04      0.04      0.07      0.01         0.01
  HS02003077HS02003079        0.01      0.01      0.02      0.01         0.01
  HS02003108HS02003111        0.17      0.17      0.40      0.01         0.01
  HS02003100HS02003108        0.10      0.10      0.17      0.01         0.01
  HS02003088HS02003100        0.09      0.09      0.10      0.04         0.04
  HS02004817HS02004807        0.83      0.83      1.56      0.01         0.01
  HS02004807HS02004802        0.83      0.83      0.85      0.35         0.35
  HS02003053HS02003056        0.69      0.69      0.88      0.01         0.01
  HS02003039HS02003042        0.44      0.44      0.46      0.28         0.02
  HS02003036HS02003039        0.23      0.23      0.28      0.01         0.01
  YS02001759YS02001757        0.19      0.20      0.20      0.19         0.16
  YS02001762YS02001759        0.20      0.20      0.20      0.18         0.16
  YS02001765YS02001762        0.18      0.18      0.20      0.13         0.10
  YS02001770YS02001767        0.18      0.21      0.18      0.74         0.18
  YS02001774YS02001770        0.19      0.19      0.23      0.01         0.01
  YS02001779YS02001774        0.16      0.16      0.23      0.01         0.01
  YS02001767YS02001765        0.18      0.18      0.18      0.23         0.18
  YS02006561YS02001783        0.52      0.52      0.72      0.01         0.01
  YS02001783YS02001784        0.69      0.72      0.69      0.88         0.69
  YS02001784YS02001785        0.58      0.69      0.58      1.22         0.58
  YS02001790YS02001791        0.01      0.01      0.01      0.68         0.01
  YS02001910YS02001907        0.75      0.75      0.96      0.08         0.09
  YS02001786YS02001788        0.01      0.58      0.01      1.03         0.01
  YS02001915YS02001910        0.66      0.66      0.75      0.01         0.01
  YS02001918YS02001915        0.56      0.56      0.66      0.01         0.01
  YS02001923YS02001920        0.49      0.49      0.58      0.01         0.01
  YS02001926YS02001923        0.22      0.22      0.24      0.01         0.01
  YS02001929YS02001926        0.11      0.11      0.24      0.01         0.01
  YS02001932YS02001929        0.06      0.06      0.11      0.01         0.01
  YS02001935YS02001932        0.01      0.01      0.02      0.01         0.01
  YS02001920YS02001918        0.56      0.56      0.58      0.01         0.01
  YS02003290YS02003287        1.61      1.61      1.66      0.01         0.01
  YS02003294YS02003290        1.62      1.62      1.70      0.04         0.01
  YS02003297YS02003294        1.68      1.68      1.69      0.32         0.30
  YS02003275YS02003272        1.37      1.52      1.37      1.63         1.37
  YS02003300YS02003297        1.62      1.62      1.67      0.01         0.01
  YS02003303YS02003300        1.60      1.60      1.64      0.01         0.01
  YS02005582YS02005583        0.01      0.01      0.01      0.10         0.01
  YS02003272YS02003269        0.01      1.46      0.01      1.63         0.01
  YS02003278YS02003275        1.58      1.66      1.58      1.74         1.58
  YS02003281YS02003278        1.64      1.64      1.66      1.57         1.57
  YS02003284YS02003281        1.64      1.64      1.66      1.07         0.39
  YS02003287YS02003284        1.65      1.65      1.68      0.01         0.05
  YS02003306YS02003303        1.57      1.57      1.62      0.53         0.54
  YS02003309YS02003306        1.43      1.43      1.57      0.01         0.01
  YS02005600YS02005375        0.21      0.21      0.22      0.22         0.21
  YS02005384YS02005593        0.01      1.00      0.01      1.05         0.01
  YS02005595YS02005596        0.26      0.27      0.26      0.29         0.26
  YS02005612YS02005613        0.01      0.01      0.72      0.19         0.01
  YS02005571YS02005572        0.01      0.20      0.01      0.38         0.01
  YS02005579YS02005580        0.01      0.01      0.01      0.03         0.01
  YS02006553YS02006556        0.86      0.86      0.99      0.01         0.01
  YS02006556YS02006558        0.92      0.92      1.02      0.01         0.01
  YSB6556YSB1171              0.97      0.97      1.63      0.01         0.01
  YSB1202YSB1205              0.54      0.54      0.60      0.01         0.01
  YSB1205YSB1209              0.60      0.60      0.60      0.62         0.60
  YSB1209YSB1212              0.55      0.60      0.55      0.91         0.55
  YSB1212YSB1215              0.54      0.55      0.56      0.51         0.50
  YSB1215YSB1218              0.56      0.56      0.56      0.56         0.54
  YSB1218YSB1221              0.51      0.51      0.60      0.39         0.39
  YSB1221YSB1224              0.60      0.60      0.62      0.50         0.49
  YSB1224YSB1105              0.22      0.73      0.22      1.00         0.22
  YSB1189YSB1186              0.58      0.58      0.69      0.18         0.18
  YS02001907YS02006553        1.24      1.24      1.34      0.01         0.01
  YS02006562YS02006558        0.72      0.72      1.02      0.01         0.01
  YS02006558YS02006561        0.61      0.84      0.61      1.16         0.61
  YS6184YS6187                0.18      0.18      0.19      0.11         0.12
  YS6360YS6363                0.14      0.18      0.14      0.77         0.14
  YS6354YS6360                0.24      0.24      0.24      0.24         0.22
  YS6351YS6354                0.24      0.26      0.24      0.46         0.24
  YS6350YS6351                0.26      0.29      0.26      0.79         0.26
  YS6348YS6350                0.27      0.27      0.29      0.25         0.24
  YS6344YS6348                0.27      0.27      0.34      0.01         0.01
  YS6363YS6132                0.14      0.14      0.30      0.01         0.01
  YS6137YS6132                0.22      0.22      0.40      0.01         0.01
  YS6189YS6137                0.22      0.22      0.24      1.59         0.01
  YS6187YS6189                0.18      0.18      0.19      0.34         0.01
  YS6179YS6184                0.16      0.16      0.18      0.01         0.01
  YS6176YS6179                0.11      0.11      0.16      0.01         0.01
  YS6171YS6176                0.12      0.12      0.16      0.01         0.01
  YS6168YS6171                0.11      0.11      0.12      0.09         0.09
  YS6164YS6168                0.08      0.08      0.11      0.01         0.01
  YS6162YS6164                0.11      0.11      0.12      0.01         0.01
  YS6132YS6404                0.01      0.19      0.01      0.34         0.01
  YSB1106YSB1105              0.01      0.20      0.01      0.25         0.01
  YSB1109YSB1106              0.20      0.26      0.20      0.40         0.20
  YSB1112YSB1109              0.26      0.27      0.26      0.30         0.26
  YSB1115YSB1112              0.24      0.24      0.27      0.13         0.13
  YSB1118YSB1115              0.27      0.28      0.27      0.30         0.27
  YSB1121YSB1118              0.28      0.31      0.28      0.41         0.28
  YSB1124YSB1121              0.27      0.27      0.31      0.01         0.01
  YSB1105YSB1103              0.01      0.01      0.07      0.07         0.01
  YS02001748YS02001751        0.01      0.01      0.03      0.01         0.01
  YS02001751YS02001754        0.03      0.03      0.10      0.01         0.01
  YS02001754YS02001757        0.11      0.11      0.20      0.01         0.01
  YS02001882YS02001884        0.66      0.66      0.67      0.01         0.01
  YS02001884YS02001887        0.69      0.69      0.71      0.01         0.01
  YS02001890YS02001895        0.65      0.65      0.76      0.01         0.01
  YS02001895YS02001898        0.64      0.64      0.65      0.01         0.01
  YS02001898YS02001901        0.65      0.65      0.69      0.01         0.01
  YS02001901YS02001904        0.68      0.68      0.69      0.01         0.01
  YS02001904YS02001907        0.68      0.68      1.00      0.01         0.01
  YS02001887YS02001890        0.73      0.73      0.74      0.20         0.01
  YS02004309YS02004307        0.19      0.94      0.19      0.92         0.19
  YS02004319YS02004316        0.32      0.32      0.34      0.01         0.01
  YS02005376YS02005378        1.20      1.20      1.82      0.01         0.01
  YS02005378YS02005381        1.79      1.79      1.82      0.01         0.01
  YS02005381YS02005384        1.00      1.00      1.79      1.81         0.01
  YS02005598YS02005374        0.20      0.20      0.21      0.21         0.20
  YS02005602YS02005603        0.19      0.49      0.19      0.62         0.19
  YS02005603YS02005607        0.19      0.19      0.21      0.21         0.19
  YS02005621YS02005622        0.01      0.01      0.01      0.04         0.01
  YS02005624YS02005625        0.01      0.01      0.21      0.01         0.01
  YS02005630YS02005631        0.01      0.02      0.01      0.07         0.01
  YS02005633YS02005634        0.01      0.01      0.01      0.03         0.01
  YS02005636YS02005637        0.01      0.06      0.01      0.09         0.01
  YS02005639YS02005640        0.01      0.01      0.01      0.05         0.01
  YS02005627YS02005628        0.01      0.02      0.01      0.23         0.01
  YS02005644YS02005645        0.01      0.16      0.01      0.19         0.01
  YS02005650YS02005651        0.01      0.06      0.01      0.14         0.01
  YS02005653YS02005654        0.05      0.05      0.06      0.05         0.04
  YS02005654YS02005655        0.01      0.06      0.01      0.13         0.01
  YS02005658YS02005659        0.01      0.01      0.01      0.04         0.01
  YS02005661YS02005662        0.01      0.07      0.01      0.17         0.01
  YS02005664YS02005665        0.01      0.10      0.01      0.44         0.01
  YS02005667YS02005668        0.01      0.01      0.57      0.16         0.01
  YS02005647YS02005648        0.01      0.20      0.01      0.32         0.01
  YS02004312YS02004309        0.56      0.56      0.94      0.01         0.01
  YS02004314YS02004312        0.36      0.36      0.56      0.01         0.01
  YS02004316YS02004314        0.34      0.34      0.36      0.28         0.28
  YS02004320YS02004319        0.01      0.01      0.23      0.01         0.01
  YS6404YS6401                0.01      0.01      0.01      0.77         0.01
  YSB1132YSB1135              0.60      0.60      0.67      0.01         0.01
  YSB1135YSB1138              0.67      0.67      0.70      0.01         0.01
  YSB1138YSB1141              0.70      0.70      0.78      0.46         0.46
  YSB1141YSB1145              0.76      0.76      0.78      0.45         0.41
  YSB1148YSB1151              0.84      0.84      1.09      0.01         0.01
  YSB1151YSB1154              0.94      0.94      1.25      0.01         0.01
  YSB1154YSB6556              0.97      0.97      1.25      0.47         0.01
  YSB1128YSB1132              0.57      0.57      0.60      0.01         0.01
  YSB1145YSB1148              0.78      0.78      0.84      0.01         0.01
  YSB1198YSB1195              0.29      0.29      0.52      0.01         0.01
  YSB1195YSB1192              0.52      0.52      0.54      0.01         0.01
  YSB1192YSB1189              0.54      0.54      0.58      0.01         0.01
  YSB1186YSB1183              0.64      0.64      0.75      0.01         0.01
  YSB1183YSB1180              0.75      0.75      0.79      0.22         0.22
  YSB1180YSB1177              0.79      0.79      1.11      0.01         0.01
  YSB1177YSB1174              1.11      1.11      1.37      0.23         0.23
  YSB1174YSB1171              1.06      1.06      1.59      0.17         0.18
  YSB1171HS02004479           0.82      0.82      1.20      0.01         0.01
  HS02003001HS02003166        0.01      0.01      0.04      0.01         0.01
  YS02004307HS02004052        0.01      0.01      0.23      0.01         0.01
  HS02004881HS02006253        0.70      0.70      1.54      0.01         0.01
  WS0200404049WS6136          0.20      0.20      0.31      0.01         0.01
  HS02003125WS02003215        1.52      1.52      1.54      0.01         0.01
  YS02001793JiankangQianchi        0.01      0.01      2.03      0.01         0.01
  YS02001757CaochengTiaoxuchi        0.19      0.20      0.59      0.13         0.12
  WS02004041WS6409            1.10      1.10      1.19      1.17         1.10
  WSF200WS02003060            0.30      0.30      0.58      0.01         0.01
  HS02004053WS02004407        0.22      0.22      1.12      0.01         0.01
  HS02003036HS02003028        0.23      0.23      0.34      0.01         0.01
  
  
  ***************
  Pumping Summary
  ***************
  
  ---------------------------------------------------------------------------------------------------------
                                                  Min       Avg       Max     Total     Power    % Time Off
                        Percent   Number of      Flow      Flow      Flow    Volume     Usage    Pump Curve
  Pump                 Utilized   Start-Ups       LPS       LPS       LPS  10^6 ltr     Kw-hr    Low   High
  ---------------------------------------------------------------------------------------------------------
  CaochengSewagePump1     72.97           1      0.00    200.00    200.00     1.074      8.29    0.0    0.0
  CaochengSewagePump2     43.17           1      0.00    200.00    200.00     0.635      5.24    0.0    0.0
  CaochengRainPump1       40.11           1      0.00    683.00    683.00     2.016      3.22    0.0   35.4
  CaochengRainPump2       33.18           1      0.00    683.00    683.00     1.668      2.44    0.0   42.8
  JiankangSewagePump      73.71           1      0.00    300.00    300.00     1.627     25.70    0.0    0.0
  JiankangRainPump1       38.66           5      0.00   1000.00   1000.00     2.845     18.75    0.0    0.0
  JiankangRainPump2        0.00           0      0.00      0.00      0.00     0.000      0.00    0.0    0.0
  XierchiSewagePump1      91.82           1      0.00     95.00     95.00     0.642      3.96    0.0    0.0
  XierchiSewagePump2      76.34           1      0.00     95.00     95.00     0.534      3.13    0.0    0.0
  XierchiSewagePump3       0.00           0      0.00      0.00      0.00     0.000      0.00    0.0    0.0
  XierchiSewagePump4       0.00           0      0.00      0.00      0.00     0.000      0.00    0.0    0.0
  

  Analysis begun on:  Tue Oct 18 00:23:26 2022
  Analysis ended on:  Tue Oct 18 00:57:49 2022
  Total elapsed time: 00:34:23