
  EPA STORM WATER MANAGEMENT MODEL - VERSION 5.1 (Build 5.3.0.dev0)
  --------------------------------------------------------------

  WARNING 04: minimum elevation drop used for Conduit WS02004404WS02004405
  WARNING 03: negative offset ignored for Link YS02001904YS02001907
  
  *********************************************************
  NOTE: The summary statistics displayed in this report are
  based on results found at every computational time step,  
  not just on results from each reporting time step.
  *********************************************************
  
  ****************
  Analysis Options
  ****************
  Flow Units ............... LPS
  Process Models:
    Rainfall/Runoff ........ YES
    RDII ................... NO
    Snowmelt ............... NO
    Groundwater ............ NO
    Flow Routing ........... YES
    Ponding Allowed ........ NO
    Water Quality .......... NO
  Infiltration Method ...... HORTON
  Flow Routing Method ...... DYNWAVE
  Surcharge Method ......... EXTRAN
  Starting Date ............ 03/31/2017 00:00:00
  Ending Date .............. 03/31/2017 03:00:00
  Antecedent Dry Days ...... 8.0
  Report Time Step ......... 00:00:30
  Wet Time Step ............ 00:01:00
  Dry Time Step ............ 00:01:00
  Routing Time Step ........ 30.00 sec
  Variable Time Step ....... YES
  Maximum Trials ........... 8
  Number of Threads ........ 6
  Head Tolerance ........... 0.001500 m
  
  
  **************************        Volume         Depth
  Runoff Quantity Continuity     hectare-m            mm
  **************************     ---------       -------
  Initial LID Storage ......         0.284         2.409
  Total Precipitation ......         8.786        74.557
  Evaporation Loss .........         0.000         0.000
  Infiltration Loss ........         0.612         5.189
  Surface Runoff ...........         5.982        50.768
  LID Drainage .............         0.509         4.320
  Final Storage ............         1.983        16.828
  Continuity Error (%) .....        -0.180
  
  
  **************************        Volume        Volume
  Flow Routing Continuity        hectare-m      10^6 ltr
  **************************     ---------     ---------
  Dry Weather Inflow .......         0.171         1.707
  Wet Weather Inflow .......         6.468        64.676
  Groundwater Inflow .......         0.000         0.000
  RDII Inflow ..............         0.000         0.000
  External Inflow ..........         0.032         0.316
  External Outflow .........         3.904        39.040
  Flooding Loss ............         2.549        25.487
  Evaporation Loss .........         0.000         0.000
  Exfiltration Loss ........         0.000         0.000
  Initial Stored Volume ....         0.303         3.031
  Final Stored Volume ......         0.550         5.498
  Continuity Error (%) .....        -0.424
  
  
  *************************
  Highest Continuity Errors
  *************************
  Node WS02005193 (57.26%)
  Node YS02001884 (25.00%)
  Node YS02004320 (13.28%)
  Node YS02001774 (12.86%)
  Node YS6162 (6.53%)
  
  
  ***************************
  Time-Step Critical Elements
  ***************************
  Link YS02005655YS02005657 (33.10%)
  Link WS02006252WS02006251 (26.15%)
  Link WS02004041WS6409 (24.07%)
  Link WS02006280WS02006229 (1.80%)
  Link WS02003073WS02003076 (1.65%)
  
  
  ********************************
  Highest Flow Instability Indexes
  ********************************
  Link WS02006238WS02006235 (64)
  Link WS02003200WS02003201 (60)
  Link WS02003215WS02003116 (57)
  Link WS02003203WS02003091 (56)
  Link WS02004404WS02004405 (55)
  
  
  *************************
  Routing Time Step Summary
  *************************
  Minimum Time Step           :     0.50 sec
  Average Time Step           :     0.98 sec
  Maximum Time Step           :    30.00 sec
  Percent in Steady State     :     0.00
  Average Iterations per Step :     5.87
  Percent Not Converging      :    33.75
  
  
  ***************************
  Subcatchment Runoff Summary
  ***************************
  
  ------------------------------------------------------------------------------------------------------------------------------
                            Total      Total      Total      Total     Imperv       Perv      Total       Total     Peak  Runoff
                           Precip      Runon       Evap      Infil     Runoff     Runoff     Runoff      Runoff   Runoff   Coeff
  Subcatchment                 mm         mm         mm         mm         mm         mm         mm    10^6 ltr      LPS
  ------------------------------------------------------------------------------------------------------------------------------
  sub0                      74.56       0.00       0.00       0.73      67.20       4.20      71.39        0.06    44.99   0.958
  sub1                      74.56       0.00       0.00       5.86      44.56       4.54      56.31        0.37   231.96   0.755
  sub2                      74.56       0.00       0.00       6.16      32.44      13.84      50.78        0.47   247.49   0.681
  sub3                      74.56       0.00       0.00       5.46      34.59      13.77      51.55        1.16   563.83   0.691
  sub4                      74.56       0.00       0.00       3.19      53.73       5.40      62.29        1.30   667.66   0.836
  sub5                      74.56       0.00       0.00       6.53      38.37       2.40      49.22        0.56   345.43   0.660
  sub6                      74.56       0.00       0.00       5.50      42.97       2.69      52.62        1.36   811.39   0.706
  sub7                      74.56       0.00       0.00       2.46      59.40       4.86      66.57        0.22   157.52   0.893
  sub8                      74.56       0.00       0.00       1.67      62.24       5.10      68.46        0.44   297.41   0.918
  sub9                      74.56       0.00       0.00       2.00      61.08       5.00      67.69        0.33   219.04   0.908
  sub10                     74.56       0.00       0.00       4.50      48.97       3.53      57.94        0.64   410.92   0.777
  sub11                     74.56       0.00       0.00       3.59      54.53       3.93      62.59        0.73   494.49   0.839
  sub12                     74.56       0.00       0.00       6.76      35.63       4.39      48.24        0.42   290.12   0.647
  sub13                     74.56       0.00       0.00       4.22      44.41      17.52      63.19        0.75   457.70   0.848
  sub14                     74.56       0.00       0.00       3.44      54.99       4.50      63.27        0.60   399.55   0.849
  sub15                     74.56       0.00       0.00       6.24      34.09      11.46      51.12        0.88   529.66   0.686
  sub16                     74.56       0.00       0.00       5.90      34.95      13.69      53.21        0.56   369.91   0.714
  sub17                     74.56       0.00       0.00       7.74      26.82      10.11      44.96        0.39   245.29   0.603
  sub18                     74.56       0.00       0.00       2.92      57.68       4.72      65.41        0.52   372.87   0.877
  sub19                     74.56       0.00       0.00       7.59      25.72       9.27      42.90        0.14    86.37   0.575
  sub20                     74.56       0.00       0.00      12.18      25.87       2.12      45.15        0.32   174.08   0.606
  sub21                     74.56       0.00       0.00       3.95      51.41       5.77      61.31        0.31   223.35   0.822
  sub22                     74.56       0.00       0.00       5.16      34.38      19.39      55.47        3.50  2035.20   0.744
  sub23                     74.56       0.00       0.00       5.44      33.87      15.44      52.57        2.51  1549.96   0.705
  sub24                     74.56       0.00       0.00       4.70      47.09       6.29      58.39        2.09  1473.81   0.783
  sub25                     74.56       0.00       0.00       0.90      60.10       3.75      63.85        0.83   658.95   0.856
  sub26                     74.56       0.00       0.00       7.01      31.95       8.27      47.79        0.68   507.55   0.641
  sub27                     74.56       0.00       0.00       4.26      50.52       4.14      59.63        0.86   564.39   0.800
  sub28                     74.56       0.00       0.00       4.16      51.49       3.72      60.18        0.94   613.41   0.807
  sub29                     74.56       0.00       0.00       5.63      42.46       3.07      52.59        0.85   498.24   0.705
  sub30                     74.56       0.00       0.00       4.59      49.95       3.60      59.13        1.33   959.60   0.793
  sub31                     74.56       0.00       0.00       6.22      41.42       6.96      55.44        1.18   840.40   0.744
  sub32                     74.56       0.00       0.00       5.30      46.08       3.32      56.02        1.12   762.96   0.751
  sub33                     74.56       0.00       0.00       4.75      48.10       5.92      59.26        1.08   787.17   0.795
  sub34                     74.56       0.00       0.00       6.88      24.70      19.51      48.51        1.08   712.64   0.651
  sub35                     74.56       0.00       0.00       4.28      53.17       3.82      62.17        0.22   179.04   0.834
  sub36                     74.56       0.00       0.00       6.49      34.50       7.97      49.37        0.43   316.05   0.662
  sub37                     74.56       0.00       0.00       5.95      31.92      16.48      52.32        0.40   294.88   0.702
  sub38                     74.56       0.00       0.00       6.62      30.64      13.43      49.74        0.94   718.52   0.667
  sub39                     74.56       0.00       0.00       5.01      48.02       3.46      57.67        0.61   471.51   0.774
  sub40                     74.56       0.00       0.00       3.58      55.36       3.98      63.46        0.74   583.90   0.851
  sub41                     74.56       0.00       0.00       4.25      48.85       7.64      60.55        1.16   880.09   0.812
  sub42                     74.56       0.00       0.00       3.10      57.48       4.70      65.46        0.66   514.38   0.878
  sub43                     74.56       0.00       0.00       3.83      41.42      19.95      61.37        0.50   341.65   0.823
  sub44                     74.56       0.00       0.00       6.12      42.84       2.68      53.47        0.60   387.77   0.717
  sub45                     74.56       0.00       0.00       6.96      34.66       5.80      48.63        0.89   580.34   0.652
  sub46                     74.56       0.00       0.00       6.70      19.59      25.67      47.41        0.33   198.38   0.636
  sub47                     74.56       0.00       0.00       6.66      39.46       2.84      50.92        0.39   259.74   0.683
  sub48                     74.56       0.00       0.00       2.75      58.23       4.77      65.74        0.50   352.12   0.882
  sub49                     74.56       0.00       0.00       5.49      44.76       3.23      54.87        0.50   330.67   0.736
  sub50                     74.56       0.00       0.00       4.57      49.57       3.58      58.70        0.41   275.80   0.787
  sub51                     74.56       0.00       0.00       2.94      57.75       4.16      65.09        0.31   220.71   0.873
  sub52                     74.56       0.00       0.00       5.61      44.56       2.79      54.52        0.59   386.02   0.731
  sub53                     74.56       0.00       0.00       4.81      48.89       3.52      58.34        0.59   406.08   0.783
  sub54                     74.56       0.00       0.00       6.20      41.06       2.57      51.66        0.31   190.47   0.693
  sub55                     74.56       0.00       0.00       3.34      55.33       3.99      63.07        0.50   327.12   0.846
  sub56                     74.56       0.00       0.00       3.28      52.57       9.73      64.41        0.91   527.64   0.864
  sub57                     74.56       0.00       0.00       3.22      48.87      16.61      65.48        0.42   249.95   0.878
  sub58                     74.56       0.00       0.00       7.37      13.63      25.29      41.18        1.52   667.92   0.552
  sub59                     74.56       0.00       0.00       7.52      10.57      22.38      35.56        0.81   313.00   0.477
  sub60                     74.56       0.00       0.00       3.61      53.75       6.03      63.43        0.83   573.51   0.851
  sub61                     74.56       0.00       0.00       5.48      43.44       7.26      56.58        1.04   707.26   0.759
  sub62                     74.56       0.00       0.00       4.50      49.73       3.59      58.79        1.61  1020.61   0.789
  sub67                     74.56       0.00       0.00       6.94      37.62       2.71      49.35        0.92   575.30   0.662
  sub68                     74.56       0.00       0.00       3.84      51.58       6.87      62.15        1.71  1126.79   0.834
  sub71                     74.56       0.00       0.00       3.26      55.41       4.00      63.08        1.65   986.76   0.846
  sub72                     74.56       0.00       0.00       4.85      47.48       2.99      56.57        0.78   430.66   0.759
  sub73                     74.56       0.00       0.00       2.19      53.73      11.67      65.40        0.06    50.66   0.877
  sub74                     74.56       0.00       0.00       3.24      44.98      17.04      62.02        0.10    75.93   0.832
  sub75                     74.56       0.00       0.00       3.37      45.73      15.87      62.15        0.14   106.75   0.834
  sub76                     74.56       0.00       0.00       3.87      50.60       9.10      62.89        0.15   116.05   0.844
  sub77                     74.56       0.00       0.00       3.20      53.35       8.97      64.57        0.10    79.60   0.866
  sub78                     74.56       0.00       0.00       7.75      33.25       4.09      47.14        0.13    86.39   0.632
  sub79                     74.56       0.00       0.00       5.55      42.09      10.76      57.95        0.15   104.28   0.777
  sub80                     74.56       0.00       0.00       4.17      42.88      16.95      61.26        0.18   132.05   0.822
  sub81                     74.56       0.00       0.00       4.70      39.28      18.29      59.33        0.18   126.16   0.796
  sub82                     74.56       0.00       0.00       4.80      38.04      17.83      57.86        0.17   124.54   0.776
  sub83                     74.56       0.00       0.00       5.15      36.43      17.89      56.81        0.19   138.83   0.762
  sub84                     74.56       0.00       0.00       4.81      38.78      16.55      57.65        0.31   213.60   0.773
  sub85                     74.56       0.00       0.00       7.35      39.53      10.10      57.72        0.26   170.75   0.774
  sub86                     74.56       0.00       0.00       4.01      47.14      13.33      62.70        0.30   214.66   0.841
  sub87                     74.56       0.00       0.00       3.59      45.40      19.45      64.85        0.19   139.82   0.870
  sub88                     74.56       0.00       0.00       3.49      46.15      18.98      65.14        0.20   145.05   0.874
  sub89                     74.56       0.00       0.00       3.18      47.76      17.33      65.09        0.17   133.48   0.873
  sub90                     74.56       0.00       0.00       2.79      51.53      15.41      66.94        0.16   125.79   0.898
  sub91                     74.56       0.00       0.00       2.79      51.27      15.44      66.70        0.12    96.92   0.895
  sub92                     74.56       0.00       0.00       3.17      47.56      17.41      64.96        0.10    81.33   0.871
  sub93                     74.56       0.00       0.00       3.18      48.03      17.60      65.63        0.12   100.02   0.880
  sub94                     74.56       0.00       0.00       3.19      48.28      17.59      65.87        0.14   113.28   0.883
  sub95                     74.56       0.00       0.00       2.97      48.21      16.03      64.24        0.10    79.21   0.862
  sub96                     74.56       0.00       0.00       2.29      53.15      12.31      65.47        0.12   106.25   0.878
  sub97                     74.56       0.00       0.00       5.97      21.42      27.23      49.67        0.12    97.65   0.666
  sub98                     74.56       0.00       0.00       6.47      15.53      31.34      47.23        0.15    99.84   0.634
  sub99                     74.56       0.00       0.00       6.71      11.39      32.12      43.51        0.15    79.59   0.584
  sub100                    74.56       0.00       0.00       6.70      11.35      30.71      42.06        0.15    68.31   0.564
  sub101                    74.56       0.00       0.00       6.64      11.20      30.22      41.41        0.14    64.39   0.555
  sub102                    74.56       0.00       0.00       6.42      12.77      28.09      40.86        0.12    54.94   0.548
  sub103                    74.56       0.00       0.00       6.65      11.93      28.65      40.58        0.19    81.68   0.544
  sub104                    74.56       0.00       0.00       6.59      11.75      28.02      39.78        0.21    87.53   0.533
  sub105                    74.56       0.00       0.00       8.41      13.76      36.67      50.43        0.29   108.09   0.676
  sub106                    74.56       0.00       0.00       6.67      11.26      29.56      40.82        0.21    91.32   0.547
  sub107                    74.56       0.00       0.00       6.99       9.89      30.46      40.86        0.29   132.44   0.548
  sub108                    74.56       0.00       0.00       7.02       9.44      32.45      42.28        0.39   205.76   0.567
  sub109                    74.56       0.00       0.00       6.34      15.81      21.93      40.05        0.57   356.04   0.537
  sub110                    74.56       0.00       0.00       5.82      40.01       7.18      53.47        1.12   789.70   0.717
  sub111                    74.56       0.00       0.00       5.97      36.06      10.27      51.91        0.44   313.25   0.696
  sub112                    74.56       0.00       0.00       4.75      44.07       9.54      57.79        0.46   331.42   0.775
  sub113                    74.56       0.00       0.00       2.64      56.44       7.55      65.81        0.45   339.08   0.883
  sub114                    74.56       0.00       0.00       2.59      57.24       7.04      66.18        0.44   327.56   0.888
  sub115                    74.56       0.00       0.00       3.64      53.30       5.99      62.95        0.46   339.12   0.844
  sub116                    74.56       0.00       0.00       6.30      29.40      15.49      49.39        0.09    60.15   0.662
  sub117                    74.56       0.00       0.00       6.73      27.27      15.09      47.59        0.22   145.63   0.638
  

  ***********************
  LID Performance Summary
  ***********************

  --------------------------------------------------------------------------------------------------------------------
                                         Total      Evap     Infil   Surface    Drain    Initial     Final  Continuity
                                        Inflow      Loss      Loss   Outflow   Outflow   Storage   Storage       Error
  Subcatchment      LID Control             mm        mm        mm        mm        mm        mm        mm           %
  --------------------------------------------------------------------------------------------------------------------
  sub1              PermeablePavement     74.56      0.00     20.46      0.00     29.94      0.00     24.63       -0.65
  sub1              BioRententionCell     74.56      0.00      2.36      0.00      0.00     23.50     95.75       -0.06
  sub2              PermeablePavement     74.56      0.00     20.46      0.00     29.94      0.00     24.63       -0.65
  sub2              BioRententionCell     74.56      0.00      2.36      0.00      0.00     23.50     95.75       -0.06
  sub3              PermeablePavement     74.56      0.00     20.46      0.00     29.94      0.00     24.63       -0.65
  sub3              BioRententionCell     74.56      0.00      2.36      0.00      0.00     23.50     95.75       -0.06
  sub4              PermeablePavement     74.56      0.00     20.46      0.00     29.94      0.00     24.63       -0.65
  sub4              BioRententionCell     74.56      0.00      2.36      0.00      0.00     23.50     95.75       -0.06
  sub5              PermeablePavement     74.56      0.00     20.46      0.00     29.94      0.00     24.63       -0.65
  sub5              BioRententionCell     74.56      0.00      2.36      0.00      0.00     23.50     95.75       -0.06
  sub6              PermeablePavement     74.56      0.00     20.46      0.00     29.94      0.00     24.63       -0.65
  sub6              BioRententionCell     74.56      0.00      2.36      0.00      0.00     23.50     95.75       -0.06
  sub7              PermeablePavement     74.56      0.00     20.46      0.00     29.94      0.00     24.63       -0.65
  sub7              BioRententionCell     74.56      0.00      2.36      0.00      0.00     23.50     95.75       -0.06
  sub8              PermeablePavement     74.56      0.00     20.46      0.00     29.94      0.00     24.63       -0.65
  sub8              BioRententionCell     74.56      0.00      2.36      0.00      0.00     23.50     95.75       -0.06
  sub9              PermeablePavement     74.56      0.00     20.46      0.00     29.94      0.00     24.63       -0.65
  sub9              BioRententionCell     74.56      0.00      2.36      0.00      0.00     23.50     95.75       -0.06
  sub10             PermeablePavement     74.56      0.00     20.46      0.00     29.94      0.00     24.63       -0.65
  sub10             BioRententionCell     74.56      0.00      2.36      0.00      0.00     23.50     95.75       -0.06
  sub11             PermeablePavement     74.56      0.00     20.46      0.00     29.94      0.00     24.63       -0.65
  sub11             BioRententionCell     74.56      0.00      2.36      0.00      0.00     23.50     95.75       -0.06
  sub12             PermeablePavement     74.56      0.00     20.46      0.00     29.94      0.00     24.63       -0.65
  sub12             BioRententionCell     74.56      0.00      2.36      0.00      0.00     23.50     95.75       -0.06
  sub13             PermeablePavement     74.56      0.00     20.46      0.00     29.94      0.00     24.63       -0.65
  sub13             BioRententionCell     74.56      0.00      2.36      0.00      0.00     23.50     95.75       -0.06
  sub14             PermeablePavement     74.56      0.00     20.46      0.00     29.94      0.00     24.63       -0.65
  sub14             BioRententionCell     74.56      0.00      2.36      0.00      0.00     23.50     95.75       -0.06
  sub15             PermeablePavement     74.56      0.00     20.46      0.00     29.94      0.00     24.63       -0.65
  sub15             BioRententionCell     74.56      0.00      2.36      0.00      0.00     23.50     95.75       -0.06
  sub16             PermeablePavement     74.56      0.00     20.46      0.00     29.94      0.00     24.63       -0.65
  sub16             BioRententionCell     74.56      0.00      2.36      0.00      0.00     23.50     95.75       -0.06
  sub17             PermeablePavement     74.56      0.00     20.46      0.00     29.94      0.00     24.63       -0.65
  sub17             BioRententionCell     74.56      0.00      2.36      0.00      0.00     23.50     95.75       -0.06
  sub18             PermeablePavement     74.56      0.00     20.46      0.00     29.94      0.00     24.63       -0.65
  sub18             BioRententionCell     74.56      0.00      2.36      0.00      0.00     23.50     95.75       -0.06
  sub19             PermeablePavement     74.56      0.00     20.46      0.00     29.94      0.00     24.63       -0.65
  sub19             BioRententionCell     74.56      0.00      2.36      0.00      0.00     23.50     95.75       -0.06
  sub20             PermeablePavement     74.56      0.00     20.46      0.00     29.94      0.00     24.63       -0.65
  sub20             PermeablePavement     74.56      0.00     20.46      0.00     29.94      0.00     24.63       -0.65
  sub20             BioRententionCell     74.56      0.00      2.36      0.00      0.00     23.50     95.75       -0.06
  sub21             PermeablePavement     74.56      0.00     20.46      0.00     29.94      0.00     24.63       -0.65
  sub21             BioRententionCell     74.56      0.00      2.36      0.00      0.00     23.50     95.75       -0.06
  sub22             PermeablePavement     74.56      0.00     20.46      0.00     29.94      0.00     24.63       -0.65
  sub22             BioRententionCell     74.56      0.00      2.36      0.00      0.00     23.50     95.75       -0.06
  sub23             PermeablePavement     74.56      0.00     20.46      0.00     29.94      0.00     24.63       -0.65
  sub23             BioRententionCell     74.56      0.00      2.36      0.00      0.00     23.50     95.75       -0.06
  sub24             PermeablePavement     74.56      0.00     20.46      0.00     29.94      0.00     24.63       -0.65
  sub24             BioRententionCell     74.56      0.00      2.36      0.00      0.00     23.50     95.75       -0.06
  sub25             BioRententionCell     74.56      0.00      2.36      0.00      0.00     23.50     95.75       -0.06
  sub26             PermeablePavement     74.56      0.00     20.46      0.00     29.94      0.00     24.63       -0.65
  sub26             BioRententionCell     74.56      0.00      2.36      0.00      0.00     23.50     95.75       -0.06
  sub27             PermeablePavement     74.56      0.00     20.46      0.00     29.94      0.00     24.63       -0.65
  sub27             BioRententionCell     74.56      0.00      2.36      0.00      0.00     23.50     95.75       -0.06
  sub28             PermeablePavement     74.56      0.00     20.46      0.00     29.94      0.00     24.63       -0.65
  sub28             BioRententionCell     74.56      0.00      2.36      0.00      0.00     23.50     95.75       -0.06
  sub29             PermeablePavement     74.56      0.00     20.46      0.00     29.94      0.00     24.63       -0.65
  sub29             BioRententionCell     74.56      0.00      2.36      0.00      0.00     23.50     95.75       -0.06
  sub30             PermeablePavement     74.56      0.00     20.46      0.00     29.94      0.00     24.63       -0.65
  sub30             BioRententionCell     74.56      0.00      2.36      0.00      0.00     23.50     95.75       -0.06
  sub31             PermeablePavement     74.56      0.00     20.46      0.00     29.94      0.00     24.63       -0.65
  sub31             BioRententionCell     74.56      0.00      2.36      0.00      0.00     23.50     95.75       -0.06
  sub32             PermeablePavement     74.56      0.00     20.46      0.00     29.94      0.00     24.63       -0.65
  sub32             BioRententionCell     74.56      0.00      2.36      0.00      0.00     23.50     95.75       -0.06
  sub33             PermeablePavement     74.56      0.00     20.46      0.00     29.94      0.00     24.63       -0.65
  sub33             BioRententionCell     74.56      0.00      2.36      0.00      0.00     23.50     95.75       -0.06
  sub34             PermeablePavement     74.56      0.00     20.46      0.00     29.94      0.00     24.63       -0.65
  sub34             BioRententionCell     74.56      0.00      2.36      0.00      0.00     23.50     95.75       -0.06
  sub35             PermeablePavement     74.56      0.00     20.46      0.00     29.94      0.00     24.63       -0.65
  sub35             BioRententionCell     74.56      0.00      2.36      0.00      0.00     23.50     95.75       -0.06
  sub36             PermeablePavement     74.56      0.00     20.46      0.00     29.94      0.00     24.63       -0.65
  sub36             BioRententionCell     74.56      0.00      2.36      0.00      0.00     23.50     95.75       -0.06
  sub37             PermeablePavement     74.56      0.00     20.46      0.00     29.94      0.00     24.63       -0.65
  sub37             BioRententionCell     74.56      0.00      2.36      0.00      0.00     23.50     95.75       -0.06
  sub38             PermeablePavement     74.56      0.00     20.46      0.00     29.94      0.00     24.63       -0.65
  sub38             BioRententionCell     74.56      0.00      2.36      0.00      0.00     23.50     95.75       -0.06
  sub39             PermeablePavement     74.56      0.00     20.46      0.00     29.94      0.00     24.63       -0.65
  sub39             BioRententionCell     74.56      0.00      2.36      0.00      0.00     23.50     95.75       -0.06
  sub40             PermeablePavement     74.56      0.00     20.46      0.00     29.94      0.00     24.63       -0.65
  sub40             BioRententionCell     74.56      0.00      2.36      0.00      0.00     23.50     95.75       -0.06
  sub41             PermeablePavement     74.56      0.00     20.46      0.00     29.94      0.00     24.63       -0.65
  sub41             BioRententionCell     74.56      0.00      2.36      0.00      0.00     23.50     95.75       -0.06
  sub42             PermeablePavement     74.56      0.00     20.46      0.00     29.94      0.00     24.63       -0.65
  sub42             BioRententionCell     74.56      0.00      2.36      0.00      0.00     23.50     95.75       -0.06
  sub43             BioRententionCell     74.56      0.00      2.36      0.00      0.00     23.50     95.75       -0.06
  sub44             PermeablePavement     74.56      0.00     20.46      0.00     29.94      0.00     24.63       -0.65
  sub44             BioRententionCell     74.56      0.00      2.36      0.00      0.00     23.50     95.75       -0.06
  sub45             PermeablePavement     74.56      0.00     20.46      0.00     29.94      0.00     24.63       -0.65
  sub45             BioRententionCell     74.56      0.00      2.36      0.00      0.00     23.50     95.75       -0.06
  sub46             PermeablePavement     74.56      0.00     20.46      0.00     29.94      0.00     24.63       -0.65
  sub46             BioRententionCell     74.56      0.00      2.36      0.00      0.00     23.50     95.75       -0.06
  sub47             PermeablePavement     74.56      0.00     20.46      0.00     29.94      0.00     24.63       -0.65
  sub47             BioRententionCell     74.56      0.00      2.36      0.00      0.00     23.50     95.75       -0.06
  sub48             PermeablePavement     74.56      0.00     20.46      0.00     29.94      0.00     24.63       -0.65
  sub48             BioRententionCell     74.56      0.00      2.36      0.00      0.00     23.50     95.75       -0.06
  sub49             PermeablePavement     74.56      0.00     20.46      0.00     29.94      0.00     24.63       -0.65
  sub49             BioRententionCell     74.56      0.00      2.36      0.00      0.00     23.50     95.75       -0.06
  sub50             PermeablePavement     74.56      0.00     20.46      0.00     29.94      0.00     24.63       -0.65
  sub50             BioRententionCell     74.56      0.00      2.36      0.00      0.00     23.50     95.75       -0.06
  sub51             PermeablePavement     74.56      0.00     20.46      0.00     29.94      0.00     24.63       -0.65
  sub51             BioRententionCell     74.56      0.00      2.36      0.00      0.00     23.50     95.75       -0.06
  sub52             PermeablePavement     74.56      0.00     20.46      0.00     29.94      0.00     24.63       -0.65
  sub52             BioRententionCell     74.56      0.00      2.36      0.00      0.00     23.50     95.75       -0.06
  sub53             PermeablePavement     74.56      0.00     20.46      0.00     29.94      0.00     24.63       -0.65
  sub53             BioRententionCell     74.56      0.00      2.36      0.00      0.00     23.50     95.75       -0.06
  sub54             PermeablePavement     74.56      0.00     20.46      0.00     29.94      0.00     24.63       -0.65
  sub54             BioRententionCell     74.56      0.00      2.36      0.00      0.00     23.50     95.75       -0.06
  sub55             PermeablePavement     74.56      0.00     20.46      0.00     29.94      0.00     24.63       -0.65
  sub55             BioRententionCell     74.56      0.00      2.36      0.00      0.00     23.50     95.75       -0.06
  sub56             PermeablePavement     74.56      0.00     20.46      0.00     29.94      0.00     24.63       -0.65
  sub56             BioRententionCell     74.56      0.00      2.36      0.00      0.00     23.50     95.75       -0.06
  sub58             PermeablePavement     74.56      0.00     20.46      0.00     29.94      0.00     24.63       -0.65
  sub58             BioRententionCell     74.56      0.00      2.36      0.00      0.00     23.50     95.75       -0.06
  sub59             PermeablePavement     74.56      0.00     20.46      0.00     29.94      0.00     24.63       -0.65
  sub59             BioRententionCell     74.56      0.00      2.36      0.00      0.00     23.50     95.75       -0.06
  sub60             PermeablePavement     74.56      0.00     20.46      0.00     29.94      0.00     24.63       -0.65
  sub60             BioRententionCell     74.56      0.00      2.36      0.00      0.00     23.50     95.75       -0.06
  sub61             PermeablePavement     74.56      0.00     20.46      0.00     29.94      0.00     24.63       -0.65
  sub61             BioRententionCell     74.56      0.00      2.36      0.00      0.00     23.50     95.75       -0.06
  sub62             PermeablePavement     74.56      0.00     20.46      0.00     29.94      0.00     24.63       -0.65
  sub62             BioRententionCell     74.56      0.00      2.36      0.00      0.00     23.50     95.75       -0.06
  sub67             PermeablePavement     74.56      0.00     20.46      0.00     29.94      0.00     24.63       -0.65
  sub67             BioRententionCell     74.56      0.00      2.36      0.00      0.00     23.50     95.75       -0.06
  sub68             PermeablePavement     74.56      0.00     20.46      0.00     29.94      0.00     24.63       -0.65
  sub68             BioRententionCell     74.56      0.00      2.36      0.00      0.00     23.50     95.75       -0.06
  sub71             PermeablePavement     74.56      0.00     20.46      0.00     29.94      0.00     24.63       -0.65
  sub71             BioRententionCell     74.56      0.00      2.36      0.00      0.00     23.50     95.75       -0.06
  sub72             PermeablePavement     74.56      0.00     20.46      0.00     29.94      0.00     24.63       -0.65
  sub72             BioRententionCell     74.56      0.00      2.36      0.00      0.00     23.50     95.75       -0.06
  sub73             BioRententionCell     74.56      0.00      2.36      0.00      0.00     23.50     95.75       -0.06
  sub74             BioRententionCell     74.56      0.00      2.36      0.00      0.00     23.50     95.75       -0.06
  sub75             PermeablePavement     74.56      0.00     20.46      0.00     29.94      0.00     24.63       -0.65
  sub75             BioRententionCell     74.56      0.00      2.36      0.00      0.00     23.50     95.75       -0.06
  sub76             PermeablePavement     74.56      0.00     20.46      0.00     29.94      0.00     24.63       -0.65
  sub76             BioRententionCell     74.56      0.00      2.36      0.00      0.00     23.50     95.75       -0.06
  sub77             PermeablePavement     74.56      0.00     20.46      0.00     29.94      0.00     24.63       -0.65
  sub77             BioRententionCell     74.56      0.00      2.36      0.00      0.00     23.50     95.75       -0.06
  sub78             PermeablePavement     74.56      0.00     20.46      0.00     29.94      0.00     24.63       -0.65
  sub78             BioRententionCell     74.56      0.00      2.36      0.00      0.00     23.50     95.75       -0.06
  sub79             PermeablePavement     74.56      0.00     20.46      0.00     29.94      0.00     24.63       -0.65
  sub79             BioRententionCell     74.56      0.00      2.36      0.00      0.00     23.50     95.75       -0.06
  sub80             PermeablePavement     74.56      0.00     20.46      0.00     29.94      0.00     24.63       -0.65
  sub80             BioRententionCell     74.56      0.00      2.36      0.00      0.00     23.50     95.75       -0.06
  sub81             PermeablePavement     74.56      0.00     20.46      0.00     29.94      0.00     24.63       -0.65
  sub81             BioRententionCell     74.56      0.00      2.36      0.00      0.00     23.50     95.75       -0.06
  sub82             PermeablePavement     74.56      0.00     20.46      0.00     29.94      0.00     24.63       -0.65
  sub82             BioRententionCell     74.56      0.00      2.36      0.00      0.00     23.50     95.75       -0.06
  sub83             PermeablePavement     74.56      0.00     20.46      0.00     29.94      0.00     24.63       -0.65
  sub83             BioRententionCell     74.56      0.00      2.36      0.00      0.00     23.50     95.75       -0.06
  sub84             PermeablePavement     74.56      0.00     20.46      0.00     29.94      0.00     24.63       -0.65
  sub84             BioRententionCell     74.56      0.00      2.36      0.00      0.00     23.50     95.75       -0.06
  sub85             PermeablePavement     74.56      0.00     20.46      0.00     29.94      0.00     24.63       -0.65
  sub85             BioRententionCell     74.56      0.00      2.36      0.00      0.00     23.50     95.75       -0.06
  sub86             PermeablePavement     74.56      0.00     20.46      0.00     29.94      0.00     24.63       -0.65
  sub86             BioRententionCell     74.56      0.00      2.36      0.00      0.00     23.50     95.75       -0.06
  sub87             BioRententionCell     74.56      0.00      2.36      0.00      0.00     23.50     95.75       -0.06
  sub88             BioRententionCell     74.56      0.00      2.36      0.00      0.00     23.50     95.75       -0.06
  sub89             BioRententionCell     74.56      0.00      2.36      0.00      0.00     23.50     95.75       -0.06
  sub90             BioRententionCell     74.56      0.00      2.36      0.00      0.00     23.50     95.75       -0.06
  sub91             BioRententionCell     74.56      0.00      2.36      0.00      0.00     23.50     95.75       -0.06
  sub92             BioRententionCell     74.56      0.00      2.36      0.00      0.00     23.50     95.75       -0.06
  sub93             BioRententionCell     74.56      0.00      2.36      0.00      0.00     23.50     95.75       -0.06
  sub94             BioRententionCell     74.56      0.00      2.36      0.00      0.00     23.50     95.75       -0.06
  sub95             BioRententionCell     74.56      0.00      2.36      0.00      0.00     23.50     95.75       -0.06
  sub96             BioRententionCell     74.56      0.00      2.36      0.00      0.00     23.50     95.75       -0.06
  sub97             PermeablePavement     74.56      0.00     20.46      0.00     29.94      0.00     24.63       -0.65
  sub97             BioRententionCell     74.56      0.00      2.36      0.00      0.00     23.50     95.75       -0.06
  sub98             PermeablePavement     74.56      0.00     20.46      0.00     29.94      0.00     24.63       -0.65
  sub98             BioRententionCell     74.56      0.00      2.36      0.00      0.00     23.50     95.75       -0.06
  sub99             BioRententionCell     74.56      0.00      2.36      0.00      0.00     23.50     95.75       -0.06
  sub100            BioRententionCell     74.56      0.00      2.36      0.00      0.00     23.50     95.75       -0.06
  sub101            BioRententionCell     74.56      0.00      2.36      0.00      0.00     23.50     95.75       -0.06
  sub102            BioRententionCell     74.56      0.00      2.36      0.00      0.00     23.50     95.75       -0.06
  sub103            BioRententionCell     74.56      0.00      2.36      0.00      0.00     23.50     95.75       -0.06
  sub104            BioRententionCell     74.56      0.00      2.36      0.00      0.00     23.50     95.75       -0.06
  sub106            BioRententionCell     74.56      0.00      2.36      0.00      0.00     23.50     95.75       -0.06
  sub107            PermeablePavement     74.56      0.00     20.46      0.00     29.94      0.00     24.63       -0.65
  sub107            BioRententionCell     74.56      0.00      2.36      0.00      0.00     23.50     95.75       -0.06
  sub108            PermeablePavement     74.56      0.00     20.46      0.00     29.94      0.00     24.63       -0.65
  sub108            BioRententionCell     74.56      0.00      2.36      0.00      0.00     23.50     95.75       -0.06
  sub109            PermeablePavement     74.56      0.00     20.46      0.00     29.94      0.00     24.63       -0.65
  sub109            BioRententionCell     74.56      0.00      2.36      0.00      0.00     23.50     95.75       -0.06
  sub110            PermeablePavement     74.56      0.00     20.46      0.00     29.94      0.00     24.63       -0.65
  sub110            BioRententionCell     74.56      0.00      2.36      0.00      0.00     23.50     95.75       -0.06
  sub111            PermeablePavement     74.56      0.00     20.46      0.00     29.94      0.00     24.63       -0.65
  sub111            BioRententionCell     74.56      0.00      2.36      0.00      0.00     23.50     95.75       -0.06
  sub112            PermeablePavement     74.56      0.00     20.46      0.00     29.94      0.00     24.63       -0.65
  sub112            BioRententionCell     74.56      0.00      2.36      0.00      0.00     23.50     95.75       -0.06
  sub113            PermeablePavement     74.56      0.00     20.46      0.00     29.94      0.00     24.63       -0.65
  sub113            BioRententionCell     74.56      0.00      2.36      0.00      0.00     23.50     95.75       -0.06
  sub114            PermeablePavement     74.56      0.00     20.46      0.00     29.94      0.00     24.63       -0.65
  sub114            BioRententionCell     74.56      0.00      2.36      0.00      0.00     23.50     95.75       -0.06
  sub115            PermeablePavement     74.56      0.00     20.46      0.00     29.94      0.00     24.63       -0.65
  sub115            BioRententionCell     74.56      0.00      2.36      0.00      0.00     23.50     95.75       -0.06
  sub116            PermeablePavement     74.56      0.00     20.46      0.00     29.94      0.00     24.63       -0.65
  sub116            BioRententionCell     74.56      0.00      2.36      0.00      0.00     23.50     95.75       -0.06
  sub117            PermeablePavement     74.56      0.00     20.46      0.00     29.94      0.00     24.63       -0.65
  sub117            BioRententionCell     74.56      0.00      2.36      0.00      0.00     23.50     95.75       -0.06
  
  ******************
  Node Depth Summary
  ******************
  
  ---------------------------------------------------------------------------------
                                 Average  Maximum  Maximum  Time of Max    Reported
                                   Depth    Depth      HGL   Occurrence   Max Depth
  Node                 Type       Meters   Meters   Meters  days hr:min      Meters
  ---------------------------------------------------------------------------------
  WS02001211           JUNCTION     0.93     2.56     7.40     0  00:51        2.08
  WS02001212           JUNCTION     0.69     2.23     7.29     0  00:51        1.80
  WS02001213           JUNCTION     0.93     2.52     7.28     0  00:50        2.07
  WS02003069           JUNCTION     0.88     1.74     6.32     0  00:50        1.67
  WS02003072           JUNCTION     0.96     1.58     5.95     0  00:54        1.57
  WS02003073           JUNCTION     1.19     1.70     5.77     0  00:54        1.70
  WS02003076           JUNCTION     0.93     1.36     5.58     0  00:53        1.36
  WS02003060           JUNCTION     0.76     1.90     6.84     0  00:50        1.66
  WS02003066           JUNCTION     0.45     1.18     6.73     0  00:53        1.15
  WS02003059           JUNCTION     0.99     2.16     6.84     0  00:51        1.96
  WS02003115           JUNCTION     1.86     2.76     9.62     0  00:39        2.73
  WS02003116           JUNCTION     2.00     3.03     9.74     0  00:30        2.93
  WS02003118           JUNCTION     1.98     2.90     9.52     0  00:29        2.90
  WS02003215           JUNCTION     1.88     2.80     9.66     0  00:39        2.80
  WS02003110           JUNCTION     1.52     2.28     9.54     0  00:39        2.28
  WS02003111           JUNCTION     1.64     2.35     9.44     0  00:39        2.35
  WS02005155           JUNCTION     1.50     2.32     9.63     0  00:51        2.32
  WS02005154           JUNCTION     1.27     2.12     9.76     0  00:51        2.12
  WS02005193           JUNCTION     1.30     3.22    11.04     0  00:49        2.92
  WS02005196           JUNCTION     1.27     3.31    11.16     0  00:49        2.89
  WS02003067           JUNCTION     0.78     1.49     6.81     0  00:53        1.49
  WS02004401           JUNCTION     1.36     2.49     8.49     0  00:51        2.46
  WS02004402           JUNCTION     1.35     2.50     8.46     0  00:51        2.47
  WS02004403           JUNCTION     1.34     2.50     8.43     0  00:52        2.47
  WS02004404           JUNCTION     1.39     2.56     8.41     0  00:52        2.54
  WS02004406           JUNCTION     1.33     2.52     8.35     0  00:51        2.50
  WS02004409           JUNCTION     1.09     2.31     8.08     0  00:53        2.30
  WS02004410           JUNCTION     1.00     2.11     7.83     0  00:53        2.10
  WS02004411           JUNCTION     0.94     1.89     7.57     0  00:53        1.89
  WS02004412           JUNCTION     0.86     1.65     7.29     0  00:53        1.64
  WS02004413           JUNCTION     0.92     1.56     7.03     0  00:54        1.56
  WS02004405           JUNCTION     1.36     2.54     8.39     0  00:52        2.52
  WS02006109           JUNCTION     1.82     2.64     9.26     0  00:46        2.64
  WS02006110           JUNCTION     1.63     2.49     9.07     0  00:53        2.48
  WS02006111           JUNCTION     1.04     2.00     8.70     0  00:53        1.99
  WS02006112           JUNCTION     1.65     2.68     8.56     0  00:00        2.68
  WS02006113           JUNCTION     1.12     1.99     8.89     0  00:53        1.99
  WS02006115           JUNCTION     1.32     2.40     8.54     0  00:51        2.38
  WS02006116           JUNCTION     1.37     2.48     8.52     0  00:51        2.45
  WS02006230           JUNCTION     1.90     2.65     9.39     0  00:43        2.65
  WS02006231           JUNCTION     1.51     2.19     9.31     0  01:18        2.19
  WS02006232           JUNCTION     1.57     2.18     9.22     0  00:43        2.18
  WS02006234           JUNCTION     1.41     1.96     9.12     0  00:42        1.96
  WS02006235           JUNCTION     1.39     1.93     9.10     0  00:58        1.93
  WS02006238           JUNCTION     1.41     1.94     9.08     0  01:03        1.93
  WS02006240           JUNCTION     1.21     1.63     8.92     0  01:27        1.62
  WS02006242           JUNCTION     1.20     1.55     8.82     0  00:36        1.55
  WS02006243           JUNCTION     1.05     1.37     8.79     0  00:36        1.36
  WS02006245           JUNCTION     0.98     1.27     8.76     0  00:36        1.26
  WS02006247           JUNCTION     0.97     1.23     8.73     0  00:50        1.23
  WS02006248           JUNCTION     0.88     1.10     8.69     0  00:35        1.10
  WS02006249           JUNCTION     0.89     1.09     8.69     0  00:32        1.09
  WS02006239           JUNCTION     1.32     1.79     9.00     0  01:33        1.78
  WS02006251           JUNCTION     1.26     2.21     9.88     0  00:49        2.15
  WS02006252           JUNCTION     0.87     1.50     9.74     0  00:49        1.50
  WS02006253           JUNCTION     1.47     3.28    10.92     0  00:49        3.10
  WS02006256           JUNCTION     1.80     2.35     9.28     0  00:18        2.35
  WS02004138           JUNCTION     0.12     0.14     7.39     0  00:50        0.14
  WS02004139           JUNCTION     0.86     2.66     7.57     0  00:50        2.02
  WS02004407           JUNCTION     0.73     2.03     8.34     0  00:51        1.97
  WS02006228           JUNCTION     2.01     3.03     9.68     0  00:52        3.03
  WS02006229           JUNCTION     2.10     3.23     9.92     0  00:51        3.22
  WS02006280           JUNCTION     0.85     1.75    10.02     0  00:50        1.74
  WS02006284           JUNCTION     1.03     1.95    10.35     0  00:50        1.94
  WS02006287           JUNCTION     0.78     1.74    10.70     0  00:50        1.74
  WS02003091           JUNCTION     2.66     4.43    10.23     0  00:00        3.91
  WS02003203           JUNCTION     2.60     3.83     9.82     0  00:43        3.83
  WS6145               JUNCTION     0.29     2.33    10.43     0  00:53        2.31
  WS6147               JUNCTION     0.23     2.24    10.52     0  00:52        2.16
  WS6150               JUNCTION     0.23     2.22    10.55     0  00:52        2.13
  WS6152               JUNCTION     0.24     2.20    10.54     0  00:52        2.14
  WS6155               JUNCTION     0.20     2.10    10.50     0  00:52        2.10
  WS6156               JUNCTION     0.19     2.05    10.52     0  00:52        2.05
  WS6136               JUNCTION     0.27     1.90    10.85     0  00:53        1.90
  WS6140               JUNCTION     0.32     2.47    10.41     0  00:53        2.44
  WS6142               JUNCTION     0.29     2.34    10.41     0  00:53        2.32
  WS6325               JUNCTION     0.53     2.74    10.39     0  00:53        2.72
  WS6327               JUNCTION     0.39     2.58    10.40     0  00:54        2.55
  WS6329               JUNCTION     0.35     2.52    10.40     0  00:54        2.49
  WS6332               JUNCTION     0.29     2.53    10.56     0  00:51        2.34
  WS6158               JUNCTION     0.17     2.05    10.59     0  00:52        2.05
  WS6335               JUNCTION     0.29     2.60    10.67     0  00:51        2.30
  WS6338               JUNCTION     0.24     2.55    10.75     0  00:51        2.17
  WS6340               JUNCTION     0.20     2.50    10.84     0  00:51        2.03
  WS6342               JUNCTION     0.15     2.50    11.10     0  00:51        1.77
  WS6135               JUNCTION     0.68     2.89    10.39     0  00:53        2.87
  WS6396               JUNCTION     0.42     2.02     9.57     0  00:54        2.00
  WS6399               JUNCTION     0.26     1.37     8.80     0  00:54        1.36
  WS02003082           JUNCTION     1.29     1.93     7.00     0  00:53        1.92
  WS02003077           JUNCTION     0.43     0.85     5.85     0  00:53        0.84
  WS02003080           JUNCTION     0.85     1.30     6.24     0  00:52        1.29
  WS02003083           JUNCTION     1.66     2.41     7.44     0  00:55        2.40
  WS02003084           JUNCTION     1.78     2.60     7.70     0  00:53        2.59
  WS02003085           JUNCTION     1.86     2.72     7.89     0  00:54        2.71
  WS02003086           JUNCTION     2.09     3.02     8.22     0  00:55        3.01
  WS02003087           JUNCTION     2.34     3.36     8.57     0  00:53        3.35
  WS02003088           JUNCTION     2.52     4.14     9.43     0  00:00        4.07
  WS02003089           JUNCTION     2.63     4.34     9.80     0  00:00        4.02
  WS02003090           JUNCTION     2.83     4.43     9.86     0  00:00        4.04
  WS02003081           JUNCTION     1.05     1.61     6.66     0  00:53        1.61
  WS02003122           JUNCTION     2.16     3.30     9.67     0  00:29        3.10
  WS02003187           JUNCTION     2.19     3.11     9.44     0  00:48        3.11
  WS02003188           JUNCTION     2.18     2.97     9.23     0  00:48        2.97
  WS02003190           JUNCTION     2.17     2.84     9.04     0  00:37        2.84
  WS02003193           JUNCTION     2.15     2.85     9.09     0  00:37        2.85
  WS02003195           JUNCTION     2.17     2.93     9.18     0  00:37        2.93
  WS02003196           JUNCTION     2.27     3.11     9.29     0  00:50        3.11
  WS02003198           JUNCTION     2.29     3.19     9.37     0  00:51        3.19
  WS02003200           JUNCTION     2.05     2.99     9.42     0  00:37        2.93
  WS02003201           JUNCTION     2.31     3.22     9.36     0  00:37        3.22
  WS02003202           JUNCTION     2.44     4.17    10.23     0  00:00        3.48
  WS02004041           JUNCTION     0.61     0.98     5.34     0  00:54        0.98
  WSA6400              JUNCTION     1.01     2.43     8.27     0  00:52        2.41
  WS6400               JUNCTION     0.39     1.69     8.35     0  00:53        1.69
  WSF208               JUNCTION     0.73     1.95     8.05     0  00:52        1.94
  WSF207               JUNCTION     0.63     1.70     7.84     0  00:52        1.69
  WSF206               JUNCTION     0.72     1.75     7.68     0  00:52        1.73
  WSF205               JUNCTION     0.66     1.62     7.52     0  00:52        1.61
  WSF204               JUNCTION     1.18     2.18     7.33     0  00:53        2.15
  WSF203               JUNCTION     0.58     1.37     7.08     0  00:53        1.35
  WSF202               JUNCTION     0.52     1.20     6.93     0  00:53        1.18
  WSF201               JUNCTION     0.44     1.06     6.78     0  00:53        1.02
  WSF200               JUNCTION     0.56     1.46     6.69     0  00:53        1.44
  HS02004901           JUNCTION     0.63     1.42    11.24     0  00:47        1.42
  HS02004881           JUNCTION     0.45     2.15    11.18     0  00:49        1.82
  HS02004876           JUNCTION     0.57     2.26    11.29     0  00:49        2.06
  HS02004870           JUNCTION     0.47     2.10    11.39     0  00:49        1.98
  HS02004862           JUNCTION     0.48     2.00    11.38     0  00:49        2.00
  HS02004856           JUNCTION     0.51     2.07    11.50     0  00:49        1.99
  HS02004852           JUNCTION     0.45     2.06    11.58     0  00:49        1.93
  HS02004848           JUNCTION     0.44     2.02    11.62     0  00:49        1.87
  HS02004842           JUNCTION     0.74     2.22    11.49     0  00:49        2.18
  HS02004837           JUNCTION     0.46     2.04    11.62     0  00:47        1.87
  HS02004830           JUNCTION     0.53     2.02    11.49     0  00:49        1.95
  HS02004824           JUNCTION     0.57     2.01    11.41     0  00:49        1.99
  HS02004817           JUNCTION     1.05     2.42    11.27     0  00:49        2.39
  HS02004807           JUNCTION     0.74     1.92    11.09     0  00:49        1.92
  HS02004802           JUNCTION     0.76     1.81    10.94     0  00:51        1.80
  HS02004799           JUNCTION     0.84     1.76    10.97     0  00:47        1.76
  HS02004792           JUNCTION     0.64     1.60    11.12     0  00:45        1.60
  HS02004788           JUNCTION     0.47     1.42    11.32     0  00:47        1.42
  HS02004785           JUNCTION     0.52     1.49    11.39     0  00:47        1.40
  HS02004777           JUNCTION     0.64     1.48    11.28     0  00:47        1.48
  HS02004770           JUNCTION     0.62     1.42    11.25     0  00:47        1.42
  HS02004480           JUNCTION     0.75     1.67    10.91     0  00:49        1.64
  HS02004479           JUNCTION     0.79     1.69    10.89     0  00:49        1.68
  HS02004478           JUNCTION     0.65     1.59    10.82     0  00:50        1.59
  HS02004053           JUNCTION     0.23     1.90    10.67     0  00:51        1.09
  HS02004052           JUNCTION     0.29     1.50    11.15     0  00:51        1.38
  HS02004049           JUNCTION     0.17     1.04    11.73     0  00:52        0.86
  HS02004048           JUNCTION     0.40     1.70    12.60     0  00:50        1.70
  HS02004046           JUNCTION     0.38     1.71    13.43     0  00:50        1.29
  HS02004043           JUNCTION     0.16     1.75    14.45     0  00:50        0.82
  HS02004041           JUNCTION     0.12     0.29    15.74     0  00:52        0.29
  HS02004038           JUNCTION     0.11     0.29    18.97     0  00:52        0.29
  HS02004036           JUNCTION     0.00     0.00    22.46     0  00:00        0.00
  HS02004034           JUNCTION     0.00     0.00    26.83     0  00:00        0.00
  HS02004028           JUNCTION     0.16     0.51    37.36     0  00:50        0.51
  HS02004027           JUNCTION     0.13     0.34    36.47     0  00:50        0.34
  HS02004026           JUNCTION     0.13     0.35    35.75     0  00:50        0.34
  HS02004024           JUNCTION     0.14     0.42    34.64     0  00:50        0.40
  HS02004022           JUNCTION     0.18     0.80    33.84     0  00:50        0.80
  HS02004021           JUNCTION     0.21     0.81    32.54     0  00:48        0.81
  HS02004019           JUNCTION     0.28     0.80    31.76     0  00:47        0.80
  HS02004018           JUNCTION     0.18     0.60    33.81     0  00:50        0.60
  HS02004017           JUNCTION     0.17     0.53    34.37     0  00:50        0.53
  HS02004013           JUNCTION     0.10     0.33    35.47     0  00:52        0.33
  HS02004010           JUNCTION     0.04     0.13    37.99     0  00:51        0.13
  HS02003174           JUNCTION     0.16     0.41     5.94     0  00:52        0.41
  HS02003171           JUNCTION     0.17     0.46     6.14     0  00:51        0.46
  HS02003170           JUNCTION     0.22     0.44     6.89     0  00:52        0.44
  HS02003168           JUNCTION     0.11     0.28     6.78     0  00:51        0.28
  HS02003166           JUNCTION     0.21     0.44     6.92     0  00:52        0.44
  HS02003162           JUNCTION     0.19     0.42    30.67     0  00:48        0.42
  HS02003160           JUNCTION     0.14     0.34    28.40     0  00:51        0.34
  HS02003150           JUNCTION     0.15     0.37    26.38     0  00:51        0.37
  HS02003148           JUNCTION     0.17     0.46    22.20     0  00:51        0.45
  HS02003145           JUNCTION     0.21     0.81    14.68     0  00:50        0.81
  HS02003143           JUNCTION     0.32     0.80    13.27     0  00:45        0.80
  HS02003138           JUNCTION     0.14     0.32     6.81     0  01:34        0.32
  HS02003136           JUNCTION     1.30     2.28    10.00     0  00:00        2.28
  HS02003125           JUNCTION     1.43     2.39     9.84     0  00:39        2.27
  HS02003122           JUNCTION     1.47     2.49     9.93     0  00:39        2.35
  HS02003119           JUNCTION     1.25     2.57    10.28     0  00:39        2.12
  HS02003116           JUNCTION     0.95     2.43    10.55     0  00:39        1.72
  HS02003111           JUNCTION     0.44     0.83     9.84     0  00:51        0.82
  HS02003108           JUNCTION     0.35     1.01    10.12     0  00:48        0.78
  HS02003100           JUNCTION     0.24     0.71     9.95     0  00:51        0.71
  HS02003088           JUNCTION     0.19     0.68     9.98     0  00:51        0.68
  HS02003084           JUNCTION     0.07     0.53     9.96     0  00:52        0.53
  HS02003079           JUNCTION     0.05     0.46     9.97     0  00:52        0.45
  HS02003077           JUNCTION     0.01     0.25     9.99     0  00:51        0.25
  HS02003065           JUNCTION     0.56     1.62    10.86     0  00:45        1.57
  HS02003056           JUNCTION     0.59     1.75    10.69     0  00:43        1.68
  HS02003053           JUNCTION     0.38     1.66    10.96     0  00:43        1.56
  HS02003042           JUNCTION     0.25     1.69    11.35     0  00:45        1.47
  HS02003039           JUNCTION     0.29     1.73    11.38     0  00:50        1.62
  HS02003036           JUNCTION     0.13     1.41    11.47     0  00:50        1.41
  HS02003028           JUNCTION     0.23     1.40    11.14     0  00:50        1.40
  HS02003021           JUNCTION     0.25     1.55    10.92     0  00:49        1.48
  HS02003018           JUNCTION     0.26     1.48    10.69     0  00:49        1.48
  HS02003017           JUNCTION     0.26     1.48    10.64     0  00:49        1.48
  HS02003013           JUNCTION     0.26     1.47    10.52     0  00:49        1.41
  HS02003010           JUNCTION     0.29     1.43    10.23     0  00:49        1.29
  HS02003007           JUNCTION     0.26     1.20     9.82     0  00:49        1.08
  HS02003004           JUNCTION     0.35     1.01     9.33     0  00:49        0.97
  HS02003001           JUNCTION     0.10     0.28     8.57     0  00:52        0.28
  YS02001738           JUNCTION     0.00     0.00     8.89     0  00:00        0.00
  YS02001739           JUNCTION     0.00     0.00     8.37     0  00:00        0.00
  YS02001742           JUNCTION     0.00     0.00     8.49     0  00:00        0.00
  YS02001745           JUNCTION     0.13     0.32     7.84     0  00:52        0.32
  YS02001748           JUNCTION     0.15     0.37     7.45     0  00:52        0.37
  YS02001751           JUNCTION     0.15     0.36     7.24     0  00:52        0.36
  YS02001754           JUNCTION     0.14     0.42     7.03     0  00:54        0.42
  YS02001762           JUNCTION     0.32     0.88     7.28     0  00:53        0.88
  YS02001765           JUNCTION     0.30     0.87     7.32     0  00:53        0.87
  YS02001767           JUNCTION     0.32     0.89     7.38     0  00:53        0.89
  YS02001770           JUNCTION     0.38     0.98     7.47     0  00:53        0.97
  YS02001774           JUNCTION     0.45     1.06     7.49     0  00:53        1.06
  YS02001779           JUNCTION     0.20     0.79     7.47     0  00:53        0.79
  YS02001882           JUNCTION     0.67     1.79     8.50     0  00:48        1.64
  YS02001884           JUNCTION     0.76     1.86     8.47     0  00:48        1.73
  YS02001759           JUNCTION     0.32     0.87     7.23     0  00:53        0.87
  YS02001887           JUNCTION     0.84     1.87     8.41     0  00:48        1.81
  YS02001890           JUNCTION     0.87     1.81     8.32     0  00:48        1.81
  YS02001898           JUNCTION     0.64     1.77     8.51     0  00:48        1.56
  YS02001901           JUNCTION     0.75     1.78     8.39     0  00:48        1.67
  YS02001904           JUNCTION     0.73     1.68     8.31     0  00:48        1.64
  YS02001907           JUNCTION     1.04     1.96     8.25     0  00:48        1.96
  YS02001910           JUNCTION     0.86     2.02     8.53     0  00:51        1.97
  YS02001915           JUNCTION     0.69     2.00     8.72     0  00:48        1.94
  YS02001918           JUNCTION     0.44     1.81     8.88     0  00:49        1.81
  YS02001920           JUNCTION     0.52     2.10     9.11     0  00:51        2.00
  YS02001923           JUNCTION     0.35     2.03     9.29     0  00:51        1.88
  YS02001926           JUNCTION     0.37     1.90     9.35     0  00:50        1.84
  YS02001929           JUNCTION     0.24     1.78     9.47     0  00:51        1.75
  YS02001932           JUNCTION     0.15     1.77     9.57     0  00:51        1.77
  YS02001935           JUNCTION     0.10     1.75     9.68     0  00:51        1.75
  YS02001757           JUNCTION     0.29     0.82     7.08     0  00:53        0.82
  YS02001895           JUNCTION     0.64     1.67     8.42     0  00:48        1.56
  YS02005679           JUNCTION     0.00     0.00    10.24     0  00:00        0.00
  YS02005559           JUNCTION     0.07     0.16    10.11     0  00:53        0.16
  YS02005651           JUNCTION     0.06     0.15    10.92     0  00:52        0.15
  YS02005670           JUNCTION     0.07     0.18    10.63     0  00:51        0.18
  YS02005547           JUNCTION     0.04     0.12    10.66     0  00:51        0.12
  YS02005549           JUNCTION     0.06     0.17    11.08     0  00:51        0.17
  YS02005550           JUNCTION     0.08     0.19    10.82     0  00:52        0.19
  YS02005551           JUNCTION     0.05     0.11    10.49     0  00:52        0.11
  YS02005553           JUNCTION     0.09     0.22    10.58     0  00:53        0.22
  YS02005554           JUNCTION     0.05     0.11    10.35     0  00:53        0.11
  YS02005556           JUNCTION     0.10     0.21    10.26     0  00:53        0.21
  YS02005557           JUNCTION     0.05     0.11    10.08     0  00:53        0.11
  YS02005560           JUNCTION     0.06     0.12     9.86     0  00:53        0.12
  YS02005562           JUNCTION     0.09     0.19     9.93     0  00:53        0.19
  YS02005563           JUNCTION     0.05     0.11     9.77     0  00:53        0.11
  YS02005565           JUNCTION     0.08     0.16     9.87     0  00:53        0.16
  YS02005566           JUNCTION     0.07     0.14     9.53     0  00:53        0.14
  YS02005568           JUNCTION     0.10     0.20     9.70     0  00:53        0.20
  YS02005569           JUNCTION     0.08     0.15     9.48     0  00:53        0.15
  YS02005598           JUNCTION     0.17     1.07    10.91     0  00:49        1.07
  YS02005600           JUNCTION     0.18     1.02    10.68     0  00:49        1.02
  YS02005602           JUNCTION     0.40     2.15    10.43     0  00:49        2.15
  YS02005603           JUNCTION     0.13     1.32     9.45     0  00:49        0.58
  YS02005609           JUNCTION     0.06     0.16     9.05     0  00:52        0.16
  YS02005653           JUNCTION     0.09     0.27    11.24     0  00:52        0.27
  YS02005654           JUNCTION     0.10     0.32    11.08     0  00:52        0.32
  YS02005655           JUNCTION     0.05     0.12    10.76     0  00:52        0.12
  YS02005595           JUNCTION     0.22     1.36    11.04     0  00:48        1.36
  YS02005658           JUNCTION     0.09     0.23    11.14     0  00:52        0.23
  YS02005659           JUNCTION     0.05     0.12    10.78     0  00:52        0.12
  YS02005661           JUNCTION     0.11     0.45    11.16     0  00:51        0.43
  YS02005662           JUNCTION     0.05     0.12    10.74     0  00:52        0.12
  YS02005664           JUNCTION     0.11     0.28    10.86     0  00:52        0.28
  YS02005665           JUNCTION     0.04     0.10    10.66     0  00:52        0.10
  YS02005668           JUNCTION     0.04     0.10    10.26     0  00:51        0.10
  YS02005667           JUNCTION     0.24     0.44    10.46     0  00:51        0.44
  YS02005571           JUNCTION     0.13     0.26     9.74     0  00:53        0.26
  YS02005572           JUNCTION     0.10     0.19     9.54     0  00:53        0.19
  YS02005576           JUNCTION     0.09     0.18     9.93     0  00:53        0.18
  YS02005577           JUNCTION     0.08     0.16     9.65     0  00:53        0.16
  YS02005579           JUNCTION     0.14     0.43    10.05     0  00:50        0.40
  YS02005580           JUNCTION     0.10     0.21     9.74     0  00:54        0.21
  YS02005582           JUNCTION     0.22     0.86    10.94     0  00:52        0.86
  YS02005583           JUNCTION     0.11     0.63    10.62     0  00:52        0.41
  YS02005612           JUNCTION     0.33     0.81     8.94     0  00:52        0.81
  YS02005615           JUNCTION     0.05     0.13    11.62     0  00:51        0.13
  YS02005616           JUNCTION     0.04     0.10    10.92     0  00:51        0.10
  YS02005618           JUNCTION     0.07     0.20    11.06     0  00:51        0.20
  YS02005619           JUNCTION     0.05     0.12    10.67     0  00:51        0.12
  YS02005621           JUNCTION     0.08     0.24    11.35     0  00:51        0.24
  YS02005622           JUNCTION     0.04     0.10    11.06     0  00:51        0.10
  YS02005625           JUNCTION     0.03     0.09    11.11     0  00:51        0.09
  YS02005627           JUNCTION     0.10     0.26    11.19     0  00:51        0.26
  YS02005628           JUNCTION     0.04     0.10    11.00     0  00:51        0.10
  YS02005630           JUNCTION     0.09     0.27    11.34     0  00:52        0.27
  YS02005631           JUNCTION     0.04     0.11    10.99     0  00:52        0.11
  YS02005633           JUNCTION     0.08     0.23    11.36     0  00:52        0.23
  YS02005634           JUNCTION     0.05     0.12    10.96     0  00:52        0.12
  YS02005636           JUNCTION     0.09     0.28    11.28     0  00:52        0.28
  YS02005637           JUNCTION     0.05     0.14    10.90     0  00:52        0.14
  YS02005639           JUNCTION     0.08     0.24    10.87     0  00:52        0.24
  YS02005640           JUNCTION     0.05     0.14    10.47     0  00:52        0.14
  YS02005642           JUNCTION     0.07     0.18    11.01     0  00:52        0.18
  YS02005644           JUNCTION     0.10     0.42    11.53     0  00:51        0.37
  YS02005645           JUNCTION     0.07     0.17    10.98     0  00:52        0.17
  YS02005647           JUNCTION     0.17     0.85    11.74     0  00:52        0.85
  YS02005648           JUNCTION     0.08     0.20    11.00     0  00:52        0.20
  YS02005650           JUNCTION     0.11     0.44    11.33     0  00:50        0.38
  YS02005671           JUNCTION     0.03     0.09    10.31     0  00:51        0.09
  YS02005673           JUNCTION     0.07     0.18    10.54     0  00:52        0.18
  YS02005674           JUNCTION     0.05     0.12    10.01     0  00:52        0.12
  YS02005676           JUNCTION     0.00     0.00    10.24     0  00:00        0.00
  YS02005680           JUNCTION     0.05     0.12    10.22     0  00:52        0.12
  YS02005682           JUNCTION     0.00     0.00    10.06     0  00:00        0.00
  YS02005683           JUNCTION     0.03     0.07     9.97     0  00:52        0.07
  YS02005376           JUNCTION     0.63     1.01    11.10     0  00:37        1.01
  YS02005378           JUNCTION     1.14     1.62    11.14     0  00:57        1.61
  YS02005381           JUNCTION     1.03     1.57    11.20     0  00:37        1.57
  YS02005624           JUNCTION     0.21     0.41    11.29     0  00:51        0.41
  YS02005384           JUNCTION     0.33     0.85    10.50     0  00:37        0.53
  YS02005677           JUNCTION     0.05     0.13    10.21     0  00:52        0.13
  YSB1105              JUNCTION     0.24     0.53    10.02     0  00:51        0.53
  YSB1106              JUNCTION     0.24     1.68    11.52     0  00:51        0.71
  YSB1109              JUNCTION     0.29     1.65    11.60     0  00:51        0.99
  YSB1112              JUNCTION     0.29     1.95    12.08     0  00:51        1.19
  YSB1115              JUNCTION     0.27     1.90    12.20     0  00:51        1.20
  YSB1118              JUNCTION     0.28     1.80    12.34     0  00:51        1.39
  YSB1121              JUNCTION     0.33     1.70    12.37     0  00:51        1.70
  YSB1124              JUNCTION     0.20     1.60    12.43     0  00:51        1.54
  YSB1128              JUNCTION     0.31     1.85    12.43     0  00:47        1.85
  YSB1132              JUNCTION     0.35     1.90    12.35     0  00:47        1.89
  YSB1228              JUNCTION     0.05     0.14    10.98     0  00:51        0.14
  YSB1202              JUNCTION     0.71     1.50    12.39     0  00:45        1.46
  YSB1135              JUNCTION     0.46     2.00    12.26     0  00:47        1.94
  YSB1138              JUNCTION     0.55     1.90    12.07     0  00:47        1.90
  YSB1141              JUNCTION     0.60     2.00    11.83     0  00:47        1.97
  YSB1145              JUNCTION     0.61     2.00    11.69     0  00:47        1.96
  YSB1148              JUNCTION     0.67     2.00    11.50     0  00:47        1.99
  YSB1151              JUNCTION     0.86     2.10    11.32     0  00:47        2.04
  YSB1154              JUNCTION     1.01     2.10    11.16     0  00:47        2.10
  YSB1198              JUNCTION     0.15     1.60    12.39     0  00:48        1.17
  YSB1192              JUNCTION     0.31     1.90    12.17     0  00:48        1.69
  YSB6556              JUNCTION     0.86     1.80    10.97     0  00:47        1.80
  YSB1205              JUNCTION     0.88     1.65    12.35     0  00:45        1.65
  YSB1209              JUNCTION     0.85     1.65    12.22     0  00:45        1.65
  YSB1212              JUNCTION     0.75     1.60    12.13     0  00:45        1.60
  YSB1215              JUNCTION     0.74     1.70    12.05     0  00:45        1.68
  YSB1218              JUNCTION     0.73     1.75    11.94     0  00:51        1.75
  YSB1221              JUNCTION     0.72     1.69    11.66     0  00:45        1.58
  YSB1224              JUNCTION     0.66     1.33    11.18     0  00:54        1.33
  YSB1195              JUNCTION     0.27     1.90    12.28     0  00:48        1.59
  YSB1189              JUNCTION     0.41     1.80    11.96     0  00:48        1.80
  YSB1186              JUNCTION     0.46     1.93    11.81     0  00:48        1.73
  YSB1183              JUNCTION     0.57     2.05    11.64     0  00:48        1.87
  YSB1180              JUNCTION     0.60     1.95    11.46     0  00:48        1.82
  YSB1177              JUNCTION     0.85     2.05    11.24     0  00:48        2.00
  YSB1174              JUNCTION     0.91     1.95    11.06     0  00:51        1.95
  YSB1171              JUNCTION     1.09     1.95    10.85     0  00:47        1.95
  YS02006553           JUNCTION     1.04     2.04     8.32     0  00:49        1.99
  YS02006561           JUNCTION     0.35     1.34     8.00     0  00:49        1.30
  YS02006562           JUNCTION     0.82     1.94     8.45     0  00:49        1.83
  YS02006556           JUNCTION     1.01     2.10     8.41     0  00:49        2.01
  YS02006558           JUNCTION     1.05     2.16     8.43     0  00:49        2.09
  YS6132               JUNCTION     0.49     2.77    10.09     0  00:53        1.49
  YS6137               JUNCTION     0.23     2.05     9.84     0  00:53        1.12
  YS6189               JUNCTION     0.32     1.95     9.74     0  00:53        1.15
  YS6184               JUNCTION     0.31     1.88     9.77     0  00:53        1.11
  YS6179               JUNCTION     0.26     1.44     9.42     0  00:53        1.07
  YS6176               JUNCTION     0.18     0.91     9.11     0  00:53        0.89
  YS6171               JUNCTION     0.20     0.77     9.18     0  00:53        0.70
  YS6168               JUNCTION     0.21     0.70     9.21     0  00:54        0.70
  YS6164               JUNCTION     0.05     0.48     9.21     0  00:54        0.47
  YS6162               JUNCTION     0.09     1.31     9.96     0  00:54        0.62
  YS6187               JUNCTION     0.36     1.91     9.69     0  00:53        1.15
  YS6363               JUNCTION     0.28     3.05    10.84     0  00:53        1.32
  YS6360               JUNCTION     0.38     2.85    10.65     0  00:53        1.52
  YS6354               JUNCTION     0.34     2.47    10.62     0  00:53        1.85
  YS6351               JUNCTION     0.42     2.50    10.71     0  00:53        2.20
  YS6350               JUNCTION     0.47     2.50    10.72     0  00:53        2.39
  YS6348               JUNCTION     0.42     2.45    10.85     0  00:50        2.45
  YS6344               JUNCTION     0.24     2.35    10.95     0  00:54        2.26
  YS6375               JUNCTION     0.07     0.25     8.68     0  00:51        0.25
  YS6377               JUNCTION     0.13     0.32     8.68     0  00:52        0.31
  YS6381               JUNCTION     0.14     0.36     8.49     0  00:52        0.36
  YS6386               JUNCTION     0.16     0.40     8.38     0  00:52        0.40
  YS6390               JUNCTION     0.38     0.55     8.24     0  00:52        0.55
  YS6394               JUNCTION     0.09     0.21     8.13     0  00:53        0.21
  YS6404               JUNCTION     0.46     3.00    10.23     0  00:53        1.21
  YS6401               JUNCTION     0.15     0.40     7.62     0  00:53        0.40
  YS02004319           JUNCTION     0.21     1.18    20.80     0  00:48        1.18
  YS02004320           JUNCTION     0.00     0.00    22.64     0  00:59        0.00
  YS02004321           JUNCTION     0.00     0.00    26.80     0  00:58        0.00
  YS02004307           JUNCTION     0.13     0.52    11.05     0  00:53        0.51
  YS02004309           JUNCTION     0.62     1.55    13.07     0  00:41        1.55
  YS02004312           JUNCTION     0.34     1.48    14.91     0  00:47        1.48
  YS02004314           JUNCTION     0.24     1.28    16.99     0  00:48        1.28
  YS02004316           JUNCTION     0.24     1.36    19.13     0  00:48        1.36
  YS02001783           JUNCTION     0.56     1.53     7.67     0  00:49        1.51
  YS02001784           JUNCTION     0.54     1.36     7.42     0  00:49        1.27
  YS02001786           JUNCTION     0.44     1.13     7.16     0  00:49        0.87
  YS02001788           JUNCTION     0.33     0.62     6.60     0  00:55        0.62
  YS02001790           JUNCTION     0.38     0.72     6.36     0  00:53        0.72
  YS02001791           JUNCTION     0.23     0.44     5.91     0  00:53        0.43
  YS02001793           JUNCTION     0.12     0.28     5.12     0  00:51        0.28
  YS02003309           JUNCTION     0.57     1.21     9.77     0  00:34        1.11
  YS02003306           JUNCTION     0.68     1.16     9.60     0  00:34        1.16
  YS02003269           JUNCTION     0.13     0.17     7.76     0  00:47        0.17
  YS02003272           JUNCTION     0.36     0.94     8.68     0  00:35        0.58
  YS02003278           JUNCTION     0.71     1.21     9.13     0  01:02        1.21
  YS02003281           JUNCTION     0.78     1.39     9.47     0  00:47        1.39
  YS02003284           JUNCTION     0.86     1.40     9.41     0  00:47        1.40
  YS02003287           JUNCTION     0.82     1.27     9.34     0  00:35        1.27
  YS02003290           JUNCTION     0.69     1.11     9.40     0  00:58        1.10
  YS02003294           JUNCTION     0.84     1.24     9.42     0  00:35        1.24
  YS02003275           JUNCTION     0.53     0.93     8.84     0  00:35        0.91
  YS02003297           JUNCTION     0.82     1.22     9.43     0  00:35        1.22
  YS02003300           JUNCTION     0.76     1.15     9.42     0  00:34        1.15
  YS02003303           JUNCTION     0.75     1.14     9.46     0  00:34        1.14
  YSB1227              JUNCTION     0.01     0.09    10.99     0  00:51        0.08
  CaochengRainPumpOutfall1 OUTFALL      0.00     0.00     6.00     0  00:00        0.00
  JiankangRainPumpOutfall2 OUTFALL      0.00     0.00     6.00     0  00:00        0.00
  JiankangRainPumpOutfall1 OUTFALL      0.00     0.00     6.00     0  00:00        0.00
  CaochengRainPumpOutfall2 OUTFALL      0.00     0.00     6.00     0  00:00        0.00
  YS02005684           OUTFALL      0.03     0.07     8.48     0  00:52        0.07
  YS02005681           OUTFALL      0.05     0.12     9.34     0  00:52        0.12
  YS02005678           OUTFALL      0.05     0.13     8.67     0  00:52        0.13
[...]
  WS02005154WS02005155        1.44      1.44      1.45      0.07         0.07
  WS02003201WS02003202        1.60      1.61      1.60      0.73         0.01
  WS02003200WS02003201        1.56      1.56      1.61      0.01         0.01
  WS02003198WS02003200        1.55      1.56      1.58      0.02         0.01
  WS02003196WS02003198        1.57      1.57      1.57      0.93         0.93
  WS02003195WS02003196        1.56      1.56      1.56      0.88         0.89
  WS02003193WS02003195        1.56      1.56      1.56      0.16         0.17
  WS02003188WS02003190        1.55      1.55      1.58      0.51         0.52
  WS02003187WS02003188        1.55      1.55      1.56      1.01         1.02
  WS02003202WS02003203        1.61      1.61      1.63      0.72         0.01
  WS02003190WS02003193        1.55      1.55      1.57      0.01         0.01
  WS02005155WS02003110        1.48      1.48      1.48      0.12         0.14
  WS02003203WS02003091        1.62      1.62      1.62      1.56         1.54
  WS02003091WS02003090        1.64      1.65      1.70      0.01         0.01
  WS02003090WS02003089        1.67      1.67      1.69      1.76         0.01
  WS02003089WS02003088        1.66      1.67      1.69      1.58         1.57
  WS02003088WS02003087        1.69      1.70      1.69      1.76         1.69
  WS02003087WS02003086        1.63      1.63      1.71      1.67         0.01
  WS02003086WS02003085        1.62      1.62      1.67      1.74         0.01
  WS02003085WS02003084        1.63      1.64      1.63      1.65         1.62
  WS02003084WS02003083        1.62      1.64      1.62      1.84         1.62
  WS02003083WS02003082        1.61      1.61      1.65      1.73         0.01
  WS02003082WS02003081        1.60      1.61      1.60      1.73         1.60
  WS02003081WS02003080        1.60      1.60      1.60      1.61         1.59
  WS02003080WS02003077        0.47      0.47      1.60      1.61         0.01
  WS02003073WS02003076        0.56      0.56      1.37      0.15         0.01
  HS02004901HS02004770        0.58      0.58      0.58      0.01         0.01
  HS02004876HS02004881        0.60      0.62      0.60      1.54         0.59
  HS02004870HS02004876        0.53      0.53      0.62      0.01         0.01
  HS02004049HS02004052        0.07      0.07      0.10      0.01         0.01
  HS02004048HS02004049        0.17      0.26      0.17      0.32         0.17
  HS02004046HS02004048        0.09      0.09      0.26      0.01         0.01
  HS02004043HS02004046        0.05      0.05      0.12      0.01         0.01
  HS02004041HS02004043        0.01      0.01      0.05      0.01         0.01
  HS02004028HS02004027        0.01      0.05      0.01      0.06         0.01
  HS02003143HS02003065        0.42      0.42      0.62      0.01         0.01
  HS02004842HS02004848        0.45      0.45      0.65      0.01         0.01
  HS02004837HS02004842        0.48      0.48      0.65      0.01         0.01
  HS02004830HS02004837        0.48      0.48      0.54      0.01         0.01
  HS02004824HS02004830        0.54      0.54      0.58      0.01         0.01
  HS02004817HS02004824        0.58      0.58      1.46      0.01         0.01
  HS02004770HS02004777        0.58      0.58      0.59      0.01         0.01
  HS02004799HS02004480        0.74      0.74      0.81      0.83         0.01
  HS02004792HS02004799        0.68      0.68      0.81      0.01         0.01
  HS02004788HS02004792        0.53      0.53      0.68      0.01         0.01
  HS02004785HS02004788        0.53      0.54      0.53      1.46         0.48
  HS02004777HS02004785        0.54      0.54      0.59      0.01         0.01
  HS02004480HS02004478        0.68      0.74      0.68      1.63         0.68
  HS02004479HS02004480        0.74      0.74      0.78      0.01         0.01
  HS02003013HS02003010        0.25      0.25      0.29      0.13         0.13
  HS02003010HS02003007        0.23      0.23      0.25      0.28         0.23
  HS02003007HS02003004        0.25      0.25      0.32      0.10         0.10
  HS02003004HS02003001        0.01      0.32      0.01      0.88         0.01
  HS02003065HS02003056        0.60      0.60      0.75      0.01         0.01
  HS02003042HS02003053        0.20      0.20      0.56      0.01         0.01
  HS02003028HS02003021        0.14      0.14      0.19      0.01         0.01
  HS02003021HS02003018        0.22      0.22      0.23      0.01         0.01
  HS02003018HS02003017        0.24      0.24      0.24      0.10         0.10
  HS02003017HS02003013        0.24      0.24      0.25      0.18         0.17
  HS02004862HS02004870        0.50      0.50      0.53      0.20         0.17
  HS02004848HS02004852        0.45      0.45      0.48      0.02         0.01
  HS02004856HS02004862        0.46      0.46      0.50      0.01         0.01
  HS02004852HS02004856        0.48      0.48      0.51      0.02         0.01
  HS02004024HS02004022        0.01      0.01      0.09      0.01         0.01
  HS02004022HS02004021        0.09      0.09      0.17      0.01         0.01
  HS02004021HS02004019        0.17      0.17      0.24      0.11         0.12
  HS02004019HS02003162        0.01      0.24      0.01      0.27         0.01
  HS02004052HS02004053        0.09      0.10      0.09      0.12         0.09
  HS02003122HS02003125        1.39      1.40      1.40      0.12         0.14
  HS02003119HS02003122        1.38      1.38      1.40      0.01         0.01
  HS02003116HS02003119        1.05      1.05      1.38      0.01         0.01
  HS02003111HS02003116        0.01      0.01      1.12      0.01         0.01
  HS02004018HS02004019        0.11      0.11      0.24      0.01         0.01
  HS02003056HS02003136        0.63      0.63      1.41      0.01         0.01
  HS02004017HS02004018        0.09      0.09      0.11      0.01         0.01
  HS02004013HS02004017        0.01      0.01      0.09      0.01         0.01
  HS02004802HS02004478        0.69      0.69      0.75      0.12         0.01
  HS02004478WS02006287        0.56      0.56      0.74      0.01         0.01
  HS02003148HS02003145        0.01      0.01      0.08      0.01         0.01
  HS02003145HS02003143        0.08      0.08      0.40      0.07         0.06
  HS02003136WS02003203        1.42      1.42      1.55      0.01         0.01
  HS02003084HS02003088        0.01      0.01      0.02      0.01         0.01
  HS02003108HS02003111        0.11      0.11      0.29      0.01         0.01
  HS02003100HS02003108        0.05      0.05      0.11      0.01         0.01
  HS02003088HS02003100        0.04      0.04      0.05      0.01         0.01
  HS02004817HS02004807        0.73      0.73      1.46      0.01         0.01
  HS02004807HS02004802        0.73      0.73      0.75      0.25         0.25
  HS02003053HS02003056        0.56      0.56      0.75      0.01         0.01
  HS02003039HS02003042        0.27      0.28      0.30      0.13         0.02
  HS02003036HS02003039        0.09      0.09      0.14      0.01         0.01
  YS02001759YS02001757        0.01      0.01      0.01      0.09         0.01
  YS02001762YS02001759        0.01      0.01      0.01      0.08         0.01
  YS02001770YS02001767        0.01      0.01      0.01      0.54         0.01
  YS02001774YS02001770        0.01      0.01      0.04      0.01         0.01
  YS02001779YS02001774        0.01      0.01      0.04      0.01         0.01
  YS02001767YS02001765        0.01      0.01      0.01      0.11         0.01
  YS02006561YS02001783        0.35      0.35      0.54      0.01         0.01
  YS02001783YS02001784        0.51      0.54      0.51      0.69         0.51
  YS02001784YS02001785        0.41      0.51      0.41      1.01         0.41
  YS02001790YS02001791        0.01      0.01      0.01      0.50         0.01
  YS02001910YS02001907        0.57      0.57      0.76      0.01         0.01
  YS02001786YS02001788        0.01      0.41      0.01      0.83         0.01
  YS02001915YS02001910        0.48      0.48      0.57      0.01         0.01
  YS02001918YS02001915        0.40      0.40      0.48      0.01         0.01
  YS02001923YS02001920        0.33      0.33      0.41      0.01         0.01
  YS02001926YS02001923        0.10      0.10      0.12      0.01         0.01
  YS02001929YS02001926        0.02      0.02      0.12      0.01         0.01
  YS02001932YS02001929        0.01      0.01      0.02      0.01         0.01
  YS02001935YS02001932        0.01      0.01      0.01      0.01         0.01
  YS02001920YS02001918        0.40      0.40      0.41      0.01         0.01
  YS02003290YS02003287        1.43      1.43      1.55      0.01         0.01
  YS02003294YS02003290        1.46      1.46      1.60      0.02         0.01
  YS02003297YS02003294        1.58      1.58      1.59      0.33         0.33
  YS02003275YS02003272        1.14      1.30      1.14      1.53         1.14
  YS02003300YS02003297        1.50      1.50      1.56      0.01         0.01
  YS02003303YS02003300        1.41      1.41      1.52      0.01         0.01
  YS02005582YS02005583        0.10      0.33      0.10      0.50         0.10
  YS02003272YS02003269        0.01      1.23      0.01      1.52         0.01
  YS02003278YS02003275        1.36      1.57      1.36      1.69         1.36
  YS02003281YS02003278        1.53      1.53      1.56      1.35         1.35
  YS02003284YS02003281        1.53      1.53      1.56      1.01         0.27
  YS02003287YS02003284        1.54      1.54      1.58      0.01         0.04
  YS02003306YS02003303        1.36      1.36      1.50      0.40         0.41
  YS02003309YS02003306        1.20      1.20      1.36      0.01         0.01
  YS02005600YS02005375        0.15      0.15      0.17      0.17         0.15
  YS02005384YS02005593        0.01      1.03      0.01      1.09         0.01
  YS02005595YS02005596        0.17      0.18      0.17      0.20         0.17
  YS02005612YS02005613        0.01      0.01      0.75      0.16         0.01
  YS02005571YS02005572        0.01      0.01      0.01      0.18         0.01
  YS02005579YS02005580        0.01      0.18      0.01      0.35         0.01
  YS02005583YS02005584        0.10      0.10      0.13      0.13         0.10
  YS02006553YS02006556        0.66      0.66      0.78      0.01         0.01
  YS02006556YS02006558        0.72      0.72      0.81      0.01         0.01
  YSB6556YSB1171              0.84      0.84      1.53      0.01         0.01
  YSB1202YSB1205              1.05      1.05      1.14      0.01         0.01
  YSB1205YSB1209              1.14      1.14      1.15      1.03         0.97
  YSB1209YSB1212              1.08      1.15      1.08      1.38         1.08
  YSB1212YSB1215              1.08      1.08      1.11      0.68         0.67
  YSB1215YSB1218              1.11      1.11      1.14      0.76         0.75
  YSB1218YSB1221              1.04      1.04      1.18      0.82         0.82
  YSB1221YSB1224              1.18      1.18      1.22      1.03         1.02
  YSB1224YSB1105              0.59      1.31      0.59      1.37         0.59
  YSB1189YSB1186              0.48      0.48      0.58      0.11         0.11
  YS02001907YS02006553        1.02      1.02      1.12      0.01         0.01
  YS02006562YS02006558        0.54      0.54      0.81      0.01         0.01
  YS02006558YS02006561        0.43      0.65      0.43      0.95         0.43
  YS6184YS6187                0.06      0.06      0.07      0.01         0.01
  YS6360YS6363                0.02      0.08      0.02      0.57         0.02
  YS6354YS6360                0.13      0.13      0.14      0.13         0.11
  YS6351YS6354                0.13      0.15      0.13      0.33         0.13
  YS6350YS6351                0.15      0.18      0.15      0.61         0.15
  YS6348YS6350                0.16      0.16      0.18      0.14         0.14
  YS6344YS6348                0.16      0.16      0.22      0.01         0.01
  YS6363YS6132                0.02      0.02      0.18      0.01         0.01
  YS6137YS6132                0.11      0.11      0.27      0.01         0.01
  YS6189YS6137                0.11      0.11      0.13      1.36         0.01
  YS6187YS6189                0.06      0.06      0.07      0.22         0.01
  YS6179YS6184                0.03      0.03      0.06      0.01         0.01
  YS6176YS6179                0.01      0.01      0.03      0.01         0.01
  YS6171YS6176                0.01      0.01      0.02      0.01         0.01
  YS6162YS6164                0.01      0.01      0.01      0.01         0.01
  YS6132YS6404                0.01      0.07      0.01      0.21         0.01
  YSB1106YSB1105              0.01      0.12      0.01      0.17         0.01
  YSB1109YSB1106              0.12      0.18      0.12      0.31         0.12
  YSB1112YSB1109              0.18      0.18      0.18      0.21         0.18
  YSB1115YSB1112              0.16      0.16      0.18      0.11         0.11
  YSB1118YSB1115              0.19      0.19      0.19      0.21         0.19
  YSB1121YSB1118              0.19      0.22      0.19      0.31         0.19
  YSB1124YSB1121              0.19      0.19      0.22      0.01         0.01
  YSB1105YSB1103              0.01      0.01      0.09      0.09         0.01
  YS02001882YS02001884        0.48      0.48      0.49      0.01         0.01
  YS02001884YS02001887        0.51      0.51      0.52      0.01         0.01
  YS02001890YS02001895        0.47      0.47      0.57      0.01         0.01
  YS02001895YS02001898        0.46      0.46      0.47      0.01         0.01
  YS02001898YS02001901        0.47      0.47      0.51      0.01         0.01
  YS02001901YS02001904        0.50      0.50      0.51      0.01         0.01
  YS02001904YS02001907        0.50      0.50      0.79      0.01         0.01
  YS02001887YS02001890        0.54      0.54      0.55      0.01         0.01
  YS02004309YS02004307        0.06      0.74      0.06      0.72         0.06
  YS02004319YS02004316        0.19      0.19      0.20      0.01         0.01
  YS02005376YS02005378        1.38      1.38      1.78      0.01         0.01
  YS02005378YS02005381        1.74      1.74      1.78      0.19         0.01
  YS02005381YS02005384        1.03      1.03      1.74      1.76         0.01
  YS02005598YS02005374        0.13      0.13      0.15      0.15         0.13
  YS02005602YS02005603        0.14      0.40      0.14      0.52         0.14
  YS02005603YS02005607        0.14      0.14      0.15      0.15         0.14
  YS02005624YS02005625        0.01      0.01      0.18      0.01         0.01
  YS02005630YS02005631        0.01      0.01      0.01      0.04         0.01
  YS02005636YS02005637        0.01      0.01      0.01      0.06         0.01
  YS02005627YS02005628        0.01      0.01      0.01      0.20         0.01
  YS02005644YS02005645        0.01      0.03      0.01      0.07         0.01
  YS02005650YS02005651        0.01      0.05      0.01      0.13         0.01
  YS02005653YS02005654        0.01      0.01      0.01      0.01         0.01
  YS02005654YS02005655        0.01      0.01      0.01      0.12         0.01
  YS02005661YS02005662        0.01      0.04      0.01      0.15         0.01
  YS02005664YS02005665        0.01      0.01      0.01      0.34         0.01
  YS02005667YS02005668        0.01      0.01      0.28      0.01         0.01
  YS02005647YS02005648        0.01      0.19      0.01      0.31         0.01
  YS02004312YS02004309        0.38      0.38      0.74      0.01         0.01
  YS02004314YS02004312        0.22      0.22      0.38      0.01         0.01
  YS02004316YS02004314        0.20      0.20      0.22      0.15         0.15
  YS02004320YS02004319        0.01      0.01      0.12      0.01         0.01
  YS6404YS6401                0.01      0.01      0.01      0.58         0.01
  YSB1132YSB1135              0.45      0.45      0.50      0.01         0.01
  YSB1135YSB1138              0.50      0.50      0.53      0.01         0.01
  YSB1138YSB1141              0.53      0.53      0.63      0.25         0.26
  YSB1141YSB1145              0.60      0.60      0.63      0.24         0.23
  YSB1148YSB1151              0.71      0.71      0.95      0.01         0.01
  YSB1151YSB1154              0.81      0.81      1.13      0.01         0.01
  YSB1154YSB6556              0.84      0.84      1.13      0.26         0.01
  YSB1128YSB1132              0.43      0.43      0.45      0.01         0.01
  YSB1145YSB1148              0.63      0.63      0.71      0.01         0.01
  YSB1198YSB1195              0.21      0.21      0.42      0.01         0.01
  YSB1195YSB1192              0.42      0.42      0.44      0.01         0.01
  YSB1192YSB1189              0.44      0.44      0.48      0.01         0.01
  YSB1186YSB1183              0.53      0.53      0.64      0.01         0.01
  YSB1183YSB1180              0.64      0.64      0.68      0.15         0.15
  YSB1180YSB1177              0.68      0.68      1.00      0.01         0.01
  YSB1177YSB1174              1.00      1.00      1.28      0.16         0.16
  YSB1174YSB1171              0.95      0.95      1.48      0.06         0.07
  YSB1171HS02004479           0.71      0.71      1.10      0.01         0.01
  YS02004307HS02004052        0.01      0.01      0.10      0.01         0.01
  HS02004881HS02006253        0.60      0.60      1.44      0.01         0.01
  WS0200404049WS6136          0.08      0.08      0.16      0.01         0.01
  HS02003125WS02003215        1.40      1.40      1.43      0.01         0.01
  YS02001793JiankangQianchi        0.01      0.01      2.02      0.01         0.01
  YS02001757CaochengTiaoxuchi        0.01      0.01      0.53      0.01         0.01
  WS02004041WS6409            0.95      0.95      1.04      1.03         0.95
  WSF200WS02003060            0.16      0.16      0.40      0.01         0.01
  HS02004053WS02004407        0.09      0.09      0.97      0.01         0.01
  HS02003036HS02003028        0.09      0.09      0.19      0.01         0.01
  
  
  ***************
  Pumping Summary
  ***************
  
  ---------------------------------------------------------------------------------------------------------
                                                  Min       Avg       Max     Total     Power    % Time Off
                        Percent   Number of      Flow      Flow      Flow    Volume     Usage    Pump Curve
  Pump                 Utilized   Start-Ups       LPS       LPS       LPS  10^6 ltr     Kw-hr    Low   High
  ---------------------------------------------------------------------------------------------------------
  CaochengSewagePump1     85.01           1      0.00    200.00    200.00     1.245      9.56    0.0    0.0
  CaochengSewagePump2     50.11           1      0.00    200.00    200.00     0.734      5.98    0.0    0.0
  CaochengRainPump1       44.65           1      0.00    683.00    683.00     2.233      2.64    0.0   54.1
  CaochengRainPump2        0.00           0      0.00      0.00      0.00     0.000      0.00    0.0    0.0
  JiankangSewagePump      70.00           1      0.00    300.00    300.00     1.538     23.12    0.0    0.0
  JiankangRainPump1       29.50           4      0.00   1000.00   1000.00     2.160     14.29    0.0    0.0
  JiankangRainPump2        0.00           0      0.00      0.00      0.00     0.000      0.00    0.0    0.0
  XierchiSewagePump1      91.78           1      0.00     95.00     95.00     0.639      3.95    0.0    0.0
  XierchiSewagePump2      76.23           1      0.00     95.00     95.00     0.530      3.11    0.0    0.0
  XierchiSewagePump3       0.00           0      0.00      0.00      0.00     0.000      0.00    0.0    0.0
  XierchiSewagePump4       0.00           0      0.00      0.00      0.00     0.000      0.00    0.0    0.0
  

  Analysis begun on:  Fri Oct 28 23:37:50 2022
  Analysis ended on:  Sat Oct 29 00:45:53 2022
  Total elapsed time: 01:08:03