
  EPA STORM WATER MANAGEMENT MODEL - VERSION 5.1 (Build 5.3.0.dev0)
  --------------------------------------------------------------

  WARNING 04: minimum elevation drop used for Conduit WS02004404WS02004405
  WARNING 03: negative offset ignored for Link YS02001904YS02001907
  
  *********************************************************
  NOTE: The summary statistics displayed in this report are
  based on results found at every computational time step,  
  not just on results from each reporting time step.
  *********************************************************
  
  ****************
  Analysis Options
  ****************
  Flow Units ............... LPS
  Process Models:
    Rainfall/Runoff ........ YES
    RDII ................... NO
    Snowmelt ............... NO
    Groundwater ............ NO
    Flow Routing ........... YES
    Ponding Allowed ........ NO
    Water Quality .......... NO
  Infiltration Method ...... HORTON
  Flow Routing Method ...... DYNWAVE
  Surcharge Method ......... EXTRAN
  Starting Date ............ 03/31/2017 00:00:00
  Ending Date .............. 03/31/2017 03:00:00
  Antecedent Dry Days ...... 8.0
  Report Time Step ......... 00:00:30
  Wet Time Step ............ 00:01:00
  Dry Time Step ............ 00:01:00
  Routing Time Step ........ 30.00 sec
  Variable Time Step ....... YES
  Maximum Trials ........... 8
  Number of Threads ........ 6
  Head Tolerance ........... 0.001500 m
  
  
  **************************        Volume         Depth
  Runoff Quantity Continuity     hectare-m            mm
  **************************     ---------       -------
  Initial LID Storage ......         0.470         3.988
  Total Precipitation ......        12.606       106.974
  Evaporation Loss .........         0.000         0.000
  Infiltration Loss ........         0.268         2.271
  Surface Runoff ...........         9.807        83.228
  Final Storage ............         3.014        25.579
  Continuity Error (%) .....        -0.104
  
  
  **************************        Volume        Volume
  Flow Routing Continuity        hectare-m      10^6 ltr
  **************************     ---------     ---------
  Dry Weather Inflow .......         0.172         1.715
  Wet Weather Inflow .......         9.793        97.926
  Groundwater Inflow .......         0.000         0.000
  RDII Inflow ..............         0.000         0.000
  External Inflow ..........         0.034         0.336
  External Outflow .........         5.128        51.282
  Flooding Loss ............         4.626        46.256
  Evaporation Loss .........         0.000         0.000
  Exfiltration Loss ........         0.000         0.000
  Initial Stored Volume ....         0.303         3.031
  Final Stored Volume ......         0.576         5.758
  Continuity Error (%) .....        -0.279
  
  
  *************************
  Highest Continuity Errors
  *************************
  Node WS02005193 (57.82%)
  Node YS02001884 (29.43%)
  Node YS02004320 (5.40%)
  Node YS6162 (5.32%)
  Node WS02003059 (4.89%)
  
  
  ***************************
  Time-Step Critical Elements
  ***************************
  Link YS02005655YS02005657 (44.48%)
  Link WS02006252WS02006251 (21.27%)
  Link WS02004041WS6409 (13.93%)
  Link WS02003073WS02003076 (2.18%)
  Link WS02006280WS02006229 (2.16%)
  
  
  ********************************
  Highest Flow Instability Indexes
  ********************************
  Link WS02003200WS02003201 (77)
  Link WS02006238WS02006235 (75)
  Link WS02003122WS02003187 (73)
  Link WS02003215WS02003116 (73)
  Link WS02004404WS02004405 (69)
  
  
  *************************
  Routing Time Step Summary
  *************************
  Minimum Time Step           :     0.50 sec
  Average Time Step           :     0.97 sec
  Maximum Time Step           :    30.00 sec
  Percent in Steady State     :     0.00
  Average Iterations per Step :     6.61
  Percent Not Converging      :    43.30
  
  
  ***************************
  Subcatchment Runoff Summary
  ***************************
  
  ------------------------------------------------------------------------------------------------------------------------------
                            Total      Total      Total      Total     Imperv       Perv      Total       Total     Peak  Runoff
                           Precip      Runon       Evap      Infil     Runoff     Runoff     Runoff      Runoff   Runoff   Coeff
  Subcatchment                 mm         mm         mm         mm         mm         mm         mm    10^6 ltr      LPS
  ------------------------------------------------------------------------------------------------------------------------------
  sub0                     106.97       0.00       0.00       0.74      97.09       6.43     103.52        0.08    65.83   0.968
  sub1                     106.97       0.00       0.00       1.23      87.99       9.50      97.49        0.65   435.12   0.911
  sub2                     106.97       0.00       0.00       3.62      43.89      20.63      64.52        0.60   356.23   0.603
  sub3                     106.97       0.00       0.00       3.64      45.30      20.38      65.68        1.48   800.49   0.614
  sub4                     106.97       0.00       0.00       1.16      88.23       9.45      97.68        2.04  1111.14   0.913
  sub5                     106.97       0.00       0.00       0.74      95.30       6.34     101.64        1.15   770.55   0.950
  sub6                     106.97       0.00       0.00       0.74      94.49       6.30     100.79        2.61  1650.44   0.942
  sub7                     106.97       0.00       0.00       0.95      94.18       8.18     102.37        0.34   252.20   0.957
  sub8                     106.97       0.00       0.00       0.95      93.86       8.16     102.02        0.65   461.32   0.954
  sub9                     106.97       0.00       0.00       0.95      93.79       8.15     101.94        0.49   344.45   0.953
  sub10                    106.97       0.00       0.00       0.84      94.47       7.24     101.70        1.12   762.07   0.951
  sub11                    106.97       0.00       0.00       0.84      95.00       7.27     102.27        1.19   850.68   0.956
  sub12                    106.97       0.00       0.00       1.48      84.79      11.07      95.86        0.84   644.97   0.896
  sub13                    106.97       0.00       0.00       3.57      65.64      27.92      93.56        1.11   708.83   0.875
  sub14                    106.97       0.00       0.00       0.95      93.72       8.15     101.87        0.97   677.15   0.952
  sub15                    106.97       0.00       0.00       3.13      53.88      19.38      73.25        1.26   842.57   0.685
  sub16                    106.97       0.00       0.00       3.35      49.84      20.88      70.72        0.74   541.18   0.661
  sub17                    106.97       0.00       0.00       3.27      49.38      19.76      69.15        0.59   431.91   0.646
  sub18                    106.97       0.00       0.00       0.95      94.41       8.20     102.61        0.82   609.98   0.959
  sub19                    106.97       0.00       0.00       3.20      52.82      20.14      72.96        0.23   166.25   0.682
  sub20                    106.97       0.00       0.00       0.95      94.15       8.18     102.34        0.71   520.60   0.957
  sub21                    106.97       0.00       0.00       1.33      87.83      10.47      98.30        0.50   377.21   0.919
  sub22                    106.97       0.00       0.00       4.08      41.41      25.66      67.07        4.24  2721.61   0.627
  sub23                    106.97       0.00       0.00       3.62      44.92      22.10      67.01        3.20  2192.86   0.626
  sub24                    106.97       0.00       0.00       1.58      83.57      11.86      95.43        3.42  2563.59   0.892
  sub25                    106.97       0.00       0.00       0.74      97.23       6.44     103.67        1.34  1078.68   0.969
  sub26                    106.97       0.00       0.00       2.62      64.62      17.73      82.36        1.17   977.79   0.770
  sub27                    106.97       0.00       0.00       0.95      93.62       8.14     101.76        1.47  1017.13   0.951
  sub28                    106.97       0.00       0.00       0.84      94.59       7.25     101.84        1.60  1097.53   0.952
  sub29                    106.97       0.00       0.00       0.84      93.26       7.15     100.42        1.62  1008.90   0.939
  sub30                    106.97       0.00       0.00       0.84      95.75       7.32     103.07        2.32  1782.61   0.964
  sub31                    106.97       0.00       0.00       1.79      86.57      15.43     102.00        2.16  1679.03   0.953
  sub32                    106.97       0.00       0.00       0.84      95.26       7.29     102.55        2.04  1500.09   0.959
  sub33                    106.97       0.00       0.00       1.45      86.38      11.28      97.66        1.79  1381.34   0.913
  sub34                    106.97       0.00       0.00       4.22      28.04      23.86      51.91        1.16   863.22   0.485
  sub35                    106.97       0.00       0.00       0.84      96.73       7.39     104.12        0.36   319.04   0.973
  sub36                    106.97       0.00       0.00       2.43      68.53      16.79      85.31        0.74   600.61   0.798
  sub37                    106.97       0.00       0.00       3.73      41.39      22.80      64.18        0.49   398.12   0.600
  sub38                    106.97       0.00       0.00       3.49      48.16      22.43      70.60        1.34  1123.64   0.660
  sub39                    106.97       0.00       0.00       0.84      96.34       7.36     103.71        1.10   910.76   0.969
  sub40                    106.97       0.00       0.00       0.84      96.39       7.37     103.75        1.21  1004.34   0.970
  sub41                    106.97       0.00       0.00       1.80      80.53      13.38      93.91        1.81  1441.29   0.878
  sub42                    106.97       0.00       0.00       0.95      95.24       8.27     103.52        1.04   850.55   0.968
  sub43                    106.97       0.00       0.00       3.81      52.00      26.97      78.97        0.64   463.52   0.738
  sub44                    106.97       0.00       0.00       0.74      95.72       6.36     102.08        1.15   801.33   0.954
  sub45                    106.97       0.00       0.00       1.93      76.53      13.57      90.10        1.65  1189.11   0.842
  sub46                    106.97       0.00       0.00       4.36      14.47      20.91      35.37        0.25   179.86   0.331
  sub47                    106.97       0.00       0.00       0.84      95.32       7.30     102.61        0.78   578.85   0.959
  sub48                    106.97       0.00       0.00       0.95      94.19       8.18     102.38        0.78   572.21   0.957
  sub49                    106.97       0.00       0.00       0.84      94.88       7.27     102.14        0.93   659.70   0.955
  sub50                    106.97       0.00       0.00       0.84      94.93       7.27     102.20        0.72   509.59   0.955
  sub51                    106.97       0.00       0.00       0.84      95.48       7.31     102.79        0.49   363.74   0.961
  sub52                    106.97       0.00       0.00       0.74      95.81       6.37     102.18        1.11   777.11   0.955
  sub53                    106.97       0.00       0.00       0.84      95.26       7.29     102.56        1.04   761.59   0.959
  sub54                    106.97       0.00       0.00       0.74      95.23       6.34     101.56        0.61   403.76   0.949
  sub55                    106.97       0.00       0.00       0.84      94.53       7.24     101.77        0.81   555.09   0.951
  sub56                    106.97       0.00       0.00       2.00      82.29      16.29      98.58        1.40   853.31   0.922
  sub57                    106.97       0.00       0.00       3.27      70.83      26.08      96.91        0.63   386.35   0.906
  sub58                    106.97       0.00       0.00       4.53       9.19      20.31      29.50        1.09   638.65   0.276
  sub59                    106.97       0.00       0.00       4.33       6.23      16.76      22.99        0.53   282.19   0.215
  sub60                    106.97       0.00       0.00       1.27      91.00      10.84     101.83        1.34   966.29   0.952
  sub61                    106.97       0.00       0.00       1.79      85.95      15.24     101.19        1.86  1343.76   0.946
  sub62                    106.97       0.00       0.00       0.84      94.32       7.23     101.55        2.78  1867.87   0.949
  sub67                    106.97       0.00       0.00       0.84      94.54       7.24     101.78        1.89  1295.63   0.951
  sub68                    106.97       0.00       0.00       1.56      83.85      11.86      95.71        2.63  1842.79   0.895
  sub71                    106.97       0.00       0.00       0.84      93.42       7.17     100.58        2.63  1658.44   0.940
  sub72                    106.97       0.00       0.00       0.74      93.33       6.23      99.56        1.37   801.46   0.931
  sub73                    106.97       0.00       0.00       2.33      70.91      16.38      87.29        0.09    69.19   0.816
  sub74                    106.97       0.00       0.00       3.29      53.55      21.70      75.25        0.12    95.23   0.703
  sub75                    106.97       0.00       0.00       3.13      55.48      20.55      76.04        0.17   136.33   0.711
  sub76                    106.97       0.00       0.00       2.02      76.58      14.63      91.21        0.22   175.64   0.853
  sub77                    106.97       0.00       0.00       1.92      78.13      13.95      92.08        0.15   118.52   0.861
  sub78                    106.97       0.00       0.00       1.37      90.50      11.81     102.31        0.28   214.60   0.956
  sub79                    106.97       0.00       0.00       2.58      70.54      19.16      89.70        0.23   173.12   0.838
  sub80                    106.97       0.00       0.00       3.39      55.76      23.57      79.33        0.23   178.48   0.742
  sub81                    106.97       0.00       0.00       3.69      50.36      25.16      75.52        0.23   171.05   0.706
  sub82                    106.97       0.00       0.00       3.67      48.43      24.31      72.74        0.22   165.96   0.680
  sub83                    106.97       0.00       0.00       3.71      45.72      24.02      69.74        0.24   181.59   0.652
  sub84                    106.97       0.00       0.00       3.51      49.12      22.50      71.63        0.39   286.58   0.670
  sub85                    106.97       0.00       0.00       2.53      78.94      21.38     100.32        0.45   324.77   0.938
  sub86                    106.97       0.00       0.00       2.77      68.13      20.54      88.67        0.43   319.08   0.829
  sub87                    106.97       0.00       0.00       3.63      61.56      28.23      89.79        0.27   199.63   0.839
  sub88                    106.97       0.00       0.00       3.53      62.64      27.56      90.20        0.28   206.33   0.843
  sub89                    106.97       0.00       0.00       3.24      63.59      24.61      88.20        0.23   184.12   0.824
  sub90                    106.97       0.00       0.00       2.86      71.36      22.75      94.11        0.23   179.46   0.880
  sub91                    106.97       0.00       0.00       2.87      68.97      22.11      91.09        0.16   135.99   0.851
  sub92                    106.97       0.00       0.00       3.24      62.87      24.50      87.37        0.13   111.67   0.817
  sub93                    106.97       0.00       0.00       3.24      64.54      25.16      89.70        0.16   139.07   0.839
  sub94                    106.97       0.00       0.00       3.25      66.39      25.77      92.16        0.20   162.44   0.862
  sub95                    106.97       0.00       0.00       3.05      59.77      21.18      80.95        0.12   103.19   0.757
  sub96                    106.97       0.00       0.00       2.43      68.71      16.92      85.64        0.16   140.88   0.801
  sub97                    106.97       0.00       0.00       4.38      16.44      22.36      38.79        0.09    82.25   0.363
  sub98                    106.97       0.00       0.00       4.50       9.55      21.07      30.61        0.10    78.33   0.286
  sub99                    106.97       0.00       0.00       4.26       5.16      16.54      21.70        0.08    55.94   0.203
  sub100                   106.97       0.00       0.00       4.23       5.06      16.06      21.12        0.07    50.45   0.197
  sub101                   106.97       0.00       0.00       4.23       5.06      16.04      21.10        0.07    48.16   0.197
  sub102                   106.97       0.00       0.00       4.35       6.74      17.73      24.47        0.07    45.96   0.229
  sub103                   106.97       0.00       0.00       4.50       6.58      19.21      25.79        0.12    72.47   0.241
  sub104                   106.97       0.00       0.00       4.25       5.48      16.11      21.59        0.11    69.35   0.202
  sub105                   106.97       0.00       0.00       8.54      19.87      59.91      79.79        0.46   180.62   0.746
  sub106                   106.97       0.00       0.00       6.25      13.42      39.70      53.12        0.27   134.60   0.497
  sub107                   106.97       0.00       0.00       4.33       4.76      17.07      21.83        0.15   104.08   0.204
  sub108                   106.97       0.00       0.00       4.05       3.49      13.62      17.11        0.16   122.42   0.160
  sub109                   106.97       0.00       0.00       3.87       8.68      13.24      21.92        0.31   248.98   0.205
  sub110                   106.97       0.00       0.00       2.01      77.23      14.71      91.94        1.93  1468.58   0.859
  sub111                   106.97       0.00       0.00       2.80      61.02      18.46      79.48        0.68   520.92   0.743
  sub112                   106.97       0.00       0.00       2.33      70.51      16.23      86.73        0.68   527.80   0.811
  sub113                   106.97       0.00       0.00       1.57      83.88      11.92      95.79        0.66   510.35   0.895
  sub114                   106.97       0.00       0.00       1.47      85.44      11.16      96.59        0.64   494.24   0.903
  sub115                   106.97       0.00       0.00       1.32      88.60      10.57      99.17        0.73   559.59   0.927
  sub116                   106.97       0.00       0.00       3.77      39.13      22.11      61.24        0.11    83.19   0.572
  sub117                   106.97       0.00       0.00       3.81      37.51      22.20      59.71        0.27   204.35   0.558
  

  ***********************
  LID Performance Summary
  ***********************

  --------------------------------------------------------------------------------------------------------------------
                                         Total      Evap     Infil   Surface    Drain    Initial     Final  Continuity
                                        Inflow      Loss      Loss   Outflow   Outflow   Storage   Storage       Error
  Subcatchment      LID Control             mm        mm        mm        mm        mm        mm        mm           %
  --------------------------------------------------------------------------------------------------------------------
  sub1              BioRententionCell    106.97      0.00      3.02      0.00      0.00     23.50    127.53       -0.05
  sub2              BioRententionCell    106.97      0.00      3.02      0.00      0.00     23.50    127.53       -0.05
  sub3              BioRententionCell    106.97      0.00      3.02      0.00      0.00     23.50    127.53       -0.05
  sub12             BioRententionCell    106.97      0.00      3.02      0.00      0.00     23.50    127.53       -0.05
  sub13             BioRententionCell    106.97      0.00      3.02      0.00      0.00     23.50    127.53       -0.05
  sub15             BioRententionCell    106.97      0.00      3.02      0.00      0.00     23.50    127.53       -0.05
  sub16             BioRententionCell    106.97      0.00      3.02      0.00      0.00     23.50    127.53       -0.05
  sub17             BioRententionCell    106.97      0.00      3.02      0.00      0.00     23.50    127.53       -0.05
  sub19             BioRententionCell    106.97      0.00      3.02      0.00      0.00     23.50    127.53       -0.05
  sub21             BioRententionCell    106.97      0.00      3.02      0.00      0.00     23.50    127.53       -0.05
  sub22             BioRententionCell    106.97      0.00      3.02      0.00      0.00     23.50    127.53       -0.05
  sub23             BioRententionCell    106.97      0.00      3.02      0.00      0.00     23.50    127.53       -0.05
  sub24             BioRententionCell    106.97      0.00      3.02      0.00      0.00     23.50    127.53       -0.05
  sub26             BioRententionCell    106.97      0.00      3.02      0.00      0.00     23.50    127.53       -0.05
  sub33             BioRententionCell    106.97      0.00      3.02      0.00      0.00     23.50    127.53       -0.05
  sub34             BioRententionCell    106.97      0.00      3.02      0.00      0.00     23.50    127.53       -0.05
  sub36             BioRententionCell    106.97      0.00      3.02      0.00      0.00     23.50    127.53       -0.05
  sub37             BioRententionCell    106.97      0.00      3.02      0.00      0.00     23.50    127.53       -0.05
  sub38             BioRententionCell    106.97      0.00      3.02      0.00      0.00     23.50    127.53       -0.05
  sub41             BioRententionCell    106.97      0.00      3.02      0.00      0.00     23.50    127.53       -0.05
  sub43             BioRententionCell    106.97      0.00      3.02      0.00      0.00     23.50    127.53       -0.05
  sub45             BioRententionCell    106.97      0.00      3.02      0.00      0.00     23.50    127.53       -0.05
  sub46             BioRententionCell    106.97      0.00      3.02      0.00      0.00     23.50    127.53       -0.05
  sub58             BioRententionCell    106.97      0.00      3.02      0.00      0.00     23.50    127.53       -0.05
  sub59             BioRententionCell    106.97      0.00      3.02      0.00      0.00     23.50    127.53       -0.05
  sub68             BioRententionCell    106.97      0.00      3.02      0.00      0.00     23.50    127.53       -0.05
  sub73             BioRententionCell    106.97      0.00      3.02      0.00      0.00     23.50    127.53       -0.05
  sub74             BioRententionCell    106.97      0.00      3.02      0.00      0.00     23.50    127.53       -0.05
  sub75             BioRententionCell    106.97      0.00      3.02      0.00      0.00     23.50    127.53       -0.05
  sub76             BioRententionCell    106.97      0.00      3.02      0.00      0.00     23.50    127.53       -0.05
  sub77             BioRententionCell    106.97      0.00      3.02      0.00      0.00     23.50    127.53       -0.05
  sub79             BioRententionCell    106.97      0.00      3.02      0.00      0.00     23.50    127.53       -0.05
  sub80             BioRententionCell    106.97      0.00      3.02      0.00      0.00     23.50    127.53       -0.05
  sub81             BioRententionCell    106.97      0.00      3.02      0.00      0.00     23.50    127.53       -0.05
  sub82             BioRententionCell    106.97      0.00      3.02      0.00      0.00     23.50    127.53       -0.05
  sub83             BioRententionCell    106.97      0.00      3.02      0.00      0.00     23.50    127.53       -0.05
  sub84             BioRententionCell    106.97      0.00      3.02      0.00      0.00     23.50    127.53       -0.05
  sub86             BioRententionCell    106.97      0.00      3.02      0.00      0.00     23.50    127.53       -0.05
  sub87             BioRententionCell    106.97      0.00      3.02      0.00      0.00     23.50    127.53       -0.05
  sub88             BioRententionCell    106.97      0.00      3.02      0.00      0.00     23.50    127.53       -0.05
  sub89             BioRententionCell    106.97      0.00      3.02      0.00      0.00     23.50    127.53       -0.05
  sub90             BioRententionCell    106.97      0.00      3.02      0.00      0.00     23.50    127.53       -0.05
  sub91             BioRententionCell    106.97      0.00      3.02      0.00      0.00     23.50    127.53       -0.05
  sub92             BioRententionCell    106.97      0.00      3.02      0.00      0.00     23.50    127.53       -0.05
  sub93             BioRententionCell    106.97      0.00      3.02      0.00      0.00     23.50    127.53       -0.05
  sub94             BioRententionCell    106.97      0.00      3.02      0.00      0.00     23.50    127.53       -0.05
  sub95             BioRententionCell    106.97      0.00      3.02      0.00      0.00     23.50    127.53       -0.05
  sub96             BioRententionCell    106.97      0.00      3.02      0.00      0.00     23.50    127.53       -0.05
  sub97             BioRententionCell    106.97      0.00      3.02      0.00      0.00     23.50    127.53       -0.05
  sub98             BioRententionCell    106.97      0.00      3.02      0.00      0.00     23.50    127.53       -0.05
  sub99             BioRententionCell    106.97      0.00      3.02      0.00      0.00     23.50    127.53       -0.05
  sub100            BioRententionCell    106.97      0.00      3.02      0.00      0.00     23.50    127.53       -0.05
  sub101            BioRententionCell    106.97      0.00      3.02      0.00      0.00     23.50    127.53       -0.05
  sub102            BioRententionCell    106.97      0.00      3.02      0.00      0.00     23.50    127.53       -0.05
  sub103            BioRententionCell    106.97      0.00      3.02      0.00      0.00     23.50    127.53       -0.05
  sub104            BioRententionCell    106.97      0.00      3.02      0.00      0.00     23.50    127.53       -0.05
  sub106            BioRententionCell    106.97      0.00      3.02      0.00      0.00     23.50    127.53       -0.05
  sub107            BioRententionCell    106.97      0.00      3.02      0.00      0.00     23.50    127.53       -0.05
  sub108            BioRententionCell    106.97      0.00      3.02      0.00      0.00     23.50    127.53       -0.05
  sub109            BioRententionCell    106.97      0.00      3.02      0.00      0.00     23.50    127.53       -0.05
  sub110            BioRententionCell    106.97      0.00      3.02      0.00      0.00     23.50    127.53       -0.05
  sub111            BioRententionCell    106.97      0.00      3.02      0.00      0.00     23.50    127.53       -0.05
  sub112            BioRententionCell    106.97      0.00      3.02      0.00      0.00     23.50    127.53       -0.05
  sub113            BioRententionCell    106.97      0.00      3.02      0.00      0.00     23.50    127.53       -0.05
  sub114            BioRententionCell    106.97      0.00      3.02      0.00      0.00     23.50    127.53       -0.05
  sub115            BioRententionCell    106.97      0.00      3.02      0.00      0.00     23.50    127.53       -0.05
  sub116            BioRententionCell    106.97      0.00      3.02      0.00      0.00     23.50    127.53       -0.05
  sub117            BioRententionCell    106.97      0.00      3.02      0.00      0.00     23.50    127.53       -0.05
  
  ******************
  Node Depth Summary
  ******************
  
  ---------------------------------------------------------------------------------
                                 Average  Maximum  Maximum  Time of Max    Reported
                                   Depth    Depth      HGL   Occurrence   Max Depth
  Node                 Type       Meters   Meters   Meters  days hr:min      Meters
  ---------------------------------------------------------------------------------
  WS02001211           JUNCTION     1.07     2.40     7.24     0  00:45        1.79
  WS02001212           JUNCTION     0.84     2.03     7.10     0  00:45        1.55
  WS02001213           JUNCTION     1.08     2.27     7.03     0  00:45        1.85
  WS02003069           JUNCTION     1.02     1.69     6.27     0  00:49        1.68
  WS02003072           JUNCTION     1.07     1.59     5.96     0  00:49        1.58
  WS02003073           JUNCTION     1.29     1.71     5.77     0  00:49        1.70
  WS02003076           JUNCTION     1.02     1.36     5.58     0  00:49        1.36
  WS02003060           JUNCTION     0.92     1.68     6.61     0  00:49        1.67
  WS02003066           JUNCTION     0.56     1.17     6.72     0  00:49        1.17
  WS02003059           JUNCTION     1.15     1.97     6.66     0  00:45        1.92
  WS02003115           JUNCTION     2.07     2.76     9.62     0  00:31        2.73
  WS02003116           JUNCTION     2.22     3.03     9.74     0  00:22        2.93
  WS02003118           JUNCTION     2.21     2.90     9.52     0  00:22        2.90
  WS02003215           JUNCTION     2.10     2.80     9.66     0  00:31        2.80
  WS02003110           JUNCTION     1.71     2.42     9.68     0  00:51        2.42
  WS02003111           JUNCTION     1.82     2.35     9.44     0  00:31        2.35
  WS02005155           JUNCTION     1.69     2.61     9.92     0  00:51        2.61
  WS02005154           JUNCTION     1.46     2.61    10.25     0  00:51        2.61
  WS02005193           JUNCTION     1.53     3.07    10.89     0  00:51        3.07
  WS02005196           JUNCTION     1.50     3.31    11.16     0  00:27        3.03
  WS02003067           JUNCTION     0.88     1.48     6.80     0  00:49        1.48
  WS02004401           JUNCTION     1.55     2.53     8.53     0  00:47        2.45
  WS02004402           JUNCTION     1.55     2.55     8.51     0  00:47        2.46
  WS02004403           JUNCTION     1.53     2.55     8.48     0  00:47        2.46
  WS02004404           JUNCTION     1.58     2.61     8.46     0  00:47        2.53
  WS02004406           JUNCTION     1.52     2.55     8.38     0  00:47        2.49
  WS02004409           JUNCTION     1.30     2.35     8.12     0  00:47        2.30
  WS02004410           JUNCTION     1.19     2.10     7.82     0  00:49        2.09
  WS02004411           JUNCTION     1.09     1.89     7.57     0  00:49        1.88
  WS02004412           JUNCTION     0.98     1.66     7.30     0  00:49        1.64
  WS02004413           JUNCTION     1.01     1.56     7.03     0  00:49        1.55
  WS02004405           JUNCTION     1.56     2.58     8.43     0  00:47        2.51
  WS02006109           JUNCTION     1.99     2.64     9.26     0  00:42        2.64
  WS02006110           JUNCTION     1.81     2.49     9.07     0  01:03        2.48
  WS02006111           JUNCTION     1.23     2.00     8.70     0  00:57        1.99
  WS02006112           JUNCTION     1.84     2.68     8.56     0  00:00        2.68
  WS02006113           JUNCTION     1.29     2.00     8.89     0  00:47        1.99
  WS02006115           JUNCTION     1.52     2.42     8.56     0  00:47        2.38
  WS02006116           JUNCTION     1.57     2.51     8.55     0  00:47        2.45
  WS02006230           JUNCTION     2.06     2.65     9.39     0  00:37        2.65
  WS02006231           JUNCTION     1.66     2.19     9.31     0  01:03        2.19
  WS02006232           JUNCTION     1.69     2.18     9.22     0  00:37        2.18
  WS02006234           JUNCTION     1.52     1.96     9.12     0  00:36        1.96
  WS02006235           JUNCTION     1.50     1.93     9.10     0  01:30        1.93
  WS02006238           JUNCTION     1.51     1.93     9.08     0  00:51        1.93
  WS02006240           JUNCTION     1.29     1.63     8.92     0  00:30        1.62
  WS02006242           JUNCTION     1.27     1.55     8.82     0  00:24        1.55
  WS02006243           JUNCTION     1.11     1.48     8.90     0  00:25        1.37
  WS02006245           JUNCTION     1.04     1.27     8.75     0  00:46        1.27
  WS02006247           JUNCTION     1.02     1.23     8.73     0  01:18        1.23
  WS02006248           JUNCTION     0.92     1.10     8.69     0  00:26        1.10
  WS02006249           JUNCTION     0.93     1.09     8.69     0  00:26        1.09
  WS02006239           JUNCTION     1.41     1.79     9.00     0  00:30        1.78
  WS02006251           JUNCTION     1.40     2.21     9.88     0  00:44        2.19
  WS02006252           JUNCTION     0.96     1.50     9.74     0  00:44        1.50
  WS02006253           JUNCTION     1.70     3.24    10.89     0  00:51        3.24
  WS02006256           JUNCTION     1.90     2.35     9.28     0  00:16        2.35
  WS02004138           JUNCTION     0.12     0.14     7.39     0  00:33        0.14
  WS02004139           JUNCTION     1.00     2.38     7.29     0  00:45        1.72
  WS02004407           JUNCTION     0.95     2.07     8.39     0  00:47        1.96
  WS02006228           JUNCTION     2.22     3.03     9.68     0  00:45        3.03
  WS02006229           JUNCTION     2.32     3.23     9.93     0  00:45        3.22
  WS02006280           JUNCTION     1.02     1.75    10.02     0  00:48        1.74
  WS02006284           JUNCTION     1.19     1.95    10.35     0  00:49        1.94
  WS02006287           JUNCTION     0.93     1.74    10.70     0  00:48        1.73
  WS02003091           JUNCTION     2.98     4.43    10.23     0  00:00        3.91
  WS02003203           JUNCTION     2.91     3.83     9.82     0  00:00        3.83
  WS6145               JUNCTION     0.56     2.37    10.47     0  00:48        2.30
  WS6147               JUNCTION     0.48     2.29    10.56     0  00:48        2.14
  WS6150               JUNCTION     0.47     2.25    10.58     0  00:48        2.11
  WS6152               JUNCTION     0.48     2.20    10.54     0  00:48        2.14
  WS6155               JUNCTION     0.44     2.10    10.50     0  00:48        2.09
  WS6156               JUNCTION     0.42     2.05    10.52     0  00:48        2.05
  WS6136               JUNCTION     0.49     1.90    10.85     0  00:48        1.90
  WS6140               JUNCTION     0.63     2.47    10.40     0  00:49        2.44
  WS6142               JUNCTION     0.57     2.34    10.42     0  00:49        2.30
  WS6325               JUNCTION     0.87     2.74    10.39     0  00:49        2.72
  WS6327               JUNCTION     0.72     2.58    10.40     0  00:49        2.56
  WS6329               JUNCTION     0.66     2.51    10.40     0  00:49        2.49
  WS6332               JUNCTION     0.58     2.52    10.55     0  00:47        2.34
  WS6158               JUNCTION     0.39     2.05    10.59     0  00:48        2.05
  WS6335               JUNCTION     0.57     2.60    10.67     0  00:47        2.31
  WS6338               JUNCTION     0.50     2.55    10.75     0  00:47        2.18
  WS6340               JUNCTION     0.45     2.50    10.84     0  00:47        2.04
  WS6342               JUNCTION     0.37     2.50    11.10     0  00:47        1.78
  WS6135               JUNCTION     1.02     2.89    10.39     0  00:49        2.88
  WS6396               JUNCTION     0.66     2.02     9.57     0  00:49        2.00
  WS6399               JUNCTION     0.41     1.37     8.80     0  00:49        1.35
  WS02003082           JUNCTION     1.43     1.93     7.00     0  00:49        1.92
  WS02003077           JUNCTION     0.52     0.85     5.85     0  00:49        0.84
  WS02003080           JUNCTION     0.94     1.31     6.24     0  00:49        1.29
  WS02003083           JUNCTION     1.83     2.41     7.44     0  01:00        2.40
  WS02003084           JUNCTION     1.98     2.61     7.71     0  01:01        2.60
  WS02003085           JUNCTION     2.06     2.72     7.89     0  01:03        2.71
  WS02003086           JUNCTION     2.31     3.03     8.23     0  00:59        3.02
  WS02003087           JUNCTION     2.59     3.36     8.57     0  00:59        3.36
  WS02003088           JUNCTION     2.79     4.14     9.43     0  00:00        4.07
  WS02003089           JUNCTION     2.92     4.34     9.80     0  00:00        4.02
  WS02003090           JUNCTION     3.14     4.12     9.55     0  00:00        4.05
  WS02003081           JUNCTION     1.17     1.61     6.66     0  00:49        1.61
  WS02003122           JUNCTION     2.40     3.30     9.67     0  00:22        3.10
  WS02003187           JUNCTION     2.42     3.11     9.44     0  00:21        3.11
  WS02003188           JUNCTION     2.38     2.97     9.23     0  00:21        2.97
  WS02003190           JUNCTION     2.35     2.84     9.04     0  00:21        2.84
  WS02003193           JUNCTION     2.34     2.85     9.09     0  00:21        2.85
  WS02003195           JUNCTION     2.36     2.93     9.18     0  00:28        2.93
  WS02003196           JUNCTION     2.47     3.11     9.29     0  00:51        3.11
  WS02003198           JUNCTION     2.50     3.19     9.38     0  00:51        3.19
  WS02003200           JUNCTION     2.28     2.98     9.41     0  00:28        2.93
  WS02003201           JUNCTION     2.56     3.22     9.36     0  00:28        3.22
  WS02003202           JUNCTION     2.72     4.17    10.23     0  00:00        3.48
  WS02004041           JUNCTION     0.69     0.98     5.35     0  00:50        0.98
  WSA6400              JUNCTION     1.27     2.43     8.27     0  00:49        2.41
  WS6400               JUNCTION     0.60     1.70     8.36     0  00:49        1.67
  WSF208               JUNCTION     0.96     1.95     8.04     0  00:49        1.93
  WSF207               JUNCTION     0.83     1.70     7.83     0  00:49        1.69
  WSF206               JUNCTION     0.91     1.74     7.68     0  00:49        1.73
  WSF205               JUNCTION     0.83     1.62     7.52     0  00:49        1.61
  WSF204               JUNCTION     1.35     2.18     7.33     0  00:49        2.17
  WSF203               JUNCTION     0.71     1.37     7.08     0  00:49        1.36
  WSF202               JUNCTION     0.62     1.20     6.93     0  00:49        1.19
  WSF201               JUNCTION     0.53     1.05     6.77     0  00:49        1.04
  WSF200               JUNCTION     0.71     1.46     6.69     0  00:49        1.45
  HS02004901           JUNCTION     0.73     1.42    11.24     0  00:43        1.42
  HS02004881           JUNCTION     0.64     2.10    11.13     0  00:44        1.98
  HS02004876           JUNCTION     0.78     2.22    11.25     0  00:51        2.22
  HS02004870           JUNCTION     0.67     2.10    11.39     0  00:44        2.09
  HS02004862           JUNCTION     0.67     2.00    11.38     0  00:44        2.00
  HS02004856           JUNCTION     0.70     2.07    11.50     0  00:45        2.04
  HS02004852           JUNCTION     0.65     2.12    11.63     0  00:45        1.98
  HS02004848           JUNCTION     0.62     2.07    11.67     0  00:45        1.92
  HS02004842           JUNCTION     0.93     2.22    11.49     0  00:45        2.22
  HS02004837           JUNCTION     0.65     1.95    11.53     0  00:45        1.94
  HS02004830           JUNCTION     0.72     2.03    11.50     0  00:45        2.00
  HS02004824           JUNCTION     0.77     2.01    11.41     0  00:45        2.01
  HS02004817           JUNCTION     1.25     2.44    11.29     0  00:45        2.41
  HS02004807           JUNCTION     0.92     1.92    11.09     0  00:45        1.92
  HS02004802           JUNCTION     0.92     1.80    10.93     0  00:55        1.80
  HS02004799           JUNCTION     0.99     1.76    10.97     0  00:43        1.76
  HS02004792           JUNCTION     0.77     1.60    11.12     0  00:43        1.60
  HS02004788           JUNCTION     0.58     1.42    11.32     0  00:43        1.42
  HS02004785           JUNCTION     0.62     1.49    11.39     0  00:43        1.39
  HS02004777           JUNCTION     0.74     1.48    11.28     0  00:43        1.47
  HS02004770           JUNCTION     0.72     1.42    11.25     0  00:43        1.42
  HS02004480           JUNCTION     0.89     1.68    10.92     0  00:45        1.63
  HS02004479           JUNCTION     0.93     1.69    10.90     0  00:45        1.67
  HS02004478           JUNCTION     0.79     1.59    10.82     0  00:48        1.58
  HS02004053           JUNCTION     0.35     1.90    10.67     0  00:47        1.09
  HS02004052           JUNCTION     0.44     1.50    11.15     0  00:47        1.39
  HS02004049           JUNCTION     0.26     1.04    11.73     0  00:48        0.86
  HS02004048           JUNCTION     0.59     1.70    12.60     0  00:47        1.70
  HS02004046           JUNCTION     0.54     1.80    13.52     0  00:50        1.80
  HS02004043           JUNCTION     0.36     2.24    14.93     0  00:50        2.24
  HS02004041           JUNCTION     0.22     1.99    17.43     0  00:50        1.99
  HS02004038           JUNCTION     0.18     2.01    20.69     0  00:51        1.55
  HS02004036           JUNCTION     0.00     0.00    22.46     0  00:00        0.00
  HS02004034           JUNCTION     0.00     0.00    26.83     0  00:00        0.00
  HS02004028           JUNCTION     0.19     0.51    37.36     0  00:48        0.51
  HS02004027           JUNCTION     0.15     0.34    36.47     0  00:48        0.34
  HS02004026           JUNCTION     0.16     0.35    35.75     0  00:48        0.34
  HS02004024           JUNCTION     0.16     0.42    34.63     0  00:48        0.41
  HS02004022           JUNCTION     0.22     0.80    33.84     0  00:48        0.80
  HS02004021           JUNCTION     0.26     0.81    32.54     0  00:46        0.81
  HS02004019           JUNCTION     0.32     0.80    31.76     0  00:44        0.80
  HS02004018           JUNCTION     0.21     0.60    33.81     0  00:48        0.60
  HS02004017           JUNCTION     0.19     0.53    34.37     0  00:48        0.53
  HS02004013           JUNCTION     0.12     0.45    35.58     0  00:51        0.44
  HS02004010           JUNCTION     0.06     0.20    38.07     0  00:51        0.20
  HS02003174           JUNCTION     0.22     0.54     6.07     0  00:53        0.54
  HS02003171           JUNCTION     0.24     0.59     6.28     0  00:52        0.59
  HS02003170           JUNCTION     0.27     0.54     6.99     0  00:52        0.54
  HS02003168           JUNCTION     0.15     0.37     6.87     0  00:52        0.37
  HS02003166           JUNCTION     0.26     0.55     7.02     0  00:52        0.55
  HS02003162           JUNCTION     0.21     0.42    30.67     0  00:45        0.42
  HS02003160           JUNCTION     0.17     0.42    28.47     0  00:51        0.42
  HS02003150           JUNCTION     0.18     0.45    26.46     0  00:51        0.44
  HS02003148           JUNCTION     0.22     0.83    22.57     0  00:50        0.83
  HS02003145           JUNCTION     0.28     0.81    14.68     0  00:48        0.81
  HS02003143           JUNCTION     0.39     0.80    13.27     0  00:40        0.80
  HS02003138           JUNCTION     0.27     0.66     7.15     0  01:42        0.66
  HS02003136           JUNCTION     1.52     2.28    10.00     0  00:00        2.28
  HS02003125           JUNCTION     1.62     2.37     9.82     0  00:31        2.34
  HS02003122           JUNCTION     1.66     2.51     9.94     0  00:51        2.50
  HS02003119           JUNCTION     1.43     2.50    10.21     0  00:31        2.37
  HS02003116           JUNCTION     1.10     2.43    10.55     0  00:31        2.02
  HS02003111           JUNCTION     0.50     1.18    10.19     0  00:51        1.17
  HS02003108           JUNCTION     0.41     1.36    10.47     0  00:51        1.23
  HS02003100           JUNCTION     0.30     1.50    10.74     0  00:51        1.23
  HS02003088           JUNCTION     0.26     1.67    10.97     0  00:51        1.29
  HS02003084           JUNCTION     0.13     1.65    11.08     0  00:51        1.17
  HS02003079           JUNCTION     0.09     1.60    11.11     0  00:51        1.10
  HS02003077           JUNCTION     0.03     1.48    11.22     0  00:51        0.88
  HS02003065           JUNCTION     0.74     1.68    10.91     0  00:51        1.67
  HS02003056           JUNCTION     0.78     1.77    10.72     0  00:54        1.76
  HS02003053           JUNCTION     0.57     1.66    10.96     0  00:46        1.66
  HS02003042           JUNCTION     0.41     1.69    11.35     0  00:46        1.48
  HS02003039           JUNCTION     0.45     1.88    11.53     0  00:46        1.66
  HS02003036           JUNCTION     0.28     1.41    11.47     0  00:46        1.41
  HS02003028           JUNCTION     0.40     1.40    11.14     0  00:45        1.40
  HS02003021           JUNCTION     0.43     1.55    10.92     0  00:45        1.49
  HS02003018           JUNCTION     0.44     1.48    10.69     0  00:46        1.48
  HS02003017           JUNCTION     0.45     1.48    10.64     0  00:46        1.48
  HS02003013           JUNCTION     0.44     1.45    10.50     0  00:45        1.42
  HS02003010           JUNCTION     0.45     1.41    10.21     0  00:45        1.30
  HS02003007           JUNCTION     0.40     1.29     9.90     0  00:45        1.09
  HS02003004           JUNCTION     0.47     1.04     9.36     0  00:45        0.98
  HS02003001           JUNCTION     0.14     0.33     8.63     0  00:52        0.33
  YS02001738           JUNCTION     0.00     0.00     8.89     0  00:00        0.00
  YS02001739           JUNCTION     0.00     0.00     8.37     0  00:00        0.00
  YS02001742           JUNCTION     0.00     0.00     8.49     0  00:00        0.00
  YS02001745           JUNCTION     0.18     0.85     8.37     0  00:52        0.85
  YS02001748           JUNCTION     0.25     2.27     9.35     0  00:51        1.24
  YS02001751           JUNCTION     0.27     2.20     9.08     0  00:50        1.37
  YS02001754           JUNCTION     0.32     2.20     8.81     0  00:50        1.57
  YS02001762           JUNCTION     0.55     2.15     8.55     0  00:50        1.96
  YS02001765           JUNCTION     0.53     2.10     8.55     0  00:50        1.93
  YS02001767           JUNCTION     0.55     2.03     8.52     0  00:49        1.92
  YS02001770           JUNCTION     0.61     1.95     8.44     0  00:49        1.95
  YS02001774           JUNCTION     0.68     2.05     8.47     0  00:49        1.99
  YS02001779           JUNCTION     0.42     1.68     8.37     0  00:49        1.68
  YS02001882           JUNCTION     0.87     1.70     8.42     0  00:52        1.70
  YS02001884           JUNCTION     0.97     1.81     8.42     0  00:51        1.80
  YS02001759           JUNCTION     0.55     2.21     8.57     0  00:50        2.07
  YS02001887           JUNCTION     1.04     1.89     8.43     0  00:51        1.89
  YS02001890           JUNCTION     1.07     1.81     8.32     0  00:44        1.81
  YS02001898           JUNCTION     0.83     1.58     8.31     0  00:44        1.56
  YS02001901           JUNCTION     0.93     1.68     8.29     0  00:44        1.67
  YS02001904           JUNCTION     0.91     1.64     8.27     0  00:44        1.63
  YS02001907           JUNCTION     1.23     1.96     8.25     0  00:44        1.96
  YS02001910           JUNCTION     1.07     2.02     8.52     0  00:50        2.01
  YS02001915           JUNCTION     0.92     2.00     8.72     0  00:50        2.00
  YS02001918           JUNCTION     0.65     1.81     8.88     0  00:46        1.81
  YS02001920           JUNCTION     0.73     2.08     9.09     0  00:46        1.98
  YS02001923           JUNCTION     0.55     2.00     9.26     0  00:46        1.84
  YS02001926           JUNCTION     0.53     1.90     9.35     0  00:46        1.75
  YS02001929           JUNCTION     0.38     1.78     9.47     0  00:46        1.58
  YS02001932           JUNCTION     0.28     1.77     9.57     0  00:50        1.50
  YS02001935           JUNCTION     0.22     1.75     9.68     0  00:50        1.38
  YS02001757           JUNCTION     0.52     2.10     8.36     0  00:50        1.84
  YS02001895           JUNCTION     0.83     1.57     8.32     0  00:44        1.57
  YS02005679           JUNCTION     0.00     0.00    10.24     0  00:00        0.00
  YS02005559           JUNCTION     0.05     0.13    10.08     0  00:52        0.13
  YS02005651           JUNCTION     0.06     0.18    10.95     0  00:51        0.18
  YS02005670           JUNCTION     0.08     0.23    10.69     0  00:51        0.23
  YS02005547           JUNCTION     0.04     0.11    10.65     0  00:51        0.11
  YS02005549           JUNCTION     0.05     0.16    11.07     0  00:51        0.16
  YS02005550           JUNCTION     0.06     0.17    10.80     0  00:51        0.17
  YS02005551           JUNCTION     0.04     0.10    10.47     0  00:51        0.10
  YS02005553           JUNCTION     0.06     0.17    10.53     0  00:52        0.17
  YS02005554           JUNCTION     0.04     0.09    10.33     0  00:52        0.09
  YS02005556           JUNCTION     0.07     0.17    10.23     0  00:52        0.17
  YS02005557           JUNCTION     0.04     0.09    10.06     0  00:52        0.09
  YS02005560           JUNCTION     0.04     0.10     9.85     0  00:52        0.10
  YS02005562           JUNCTION     0.07     0.17     9.91     0  00:52        0.17
  YS02005563           JUNCTION     0.04     0.10     9.76     0  00:52        0.10
  YS02005565           JUNCTION     0.06     0.15     9.86     0  00:52        0.15
  YS02005566           JUNCTION     0.05     0.13     9.52     0  00:52        0.13
  YS02005568           JUNCTION     0.07     0.17     9.67     0  00:52        0.17
  YS02005569           JUNCTION     0.06     0.13     9.46     0  00:52        0.13
  YS02005598           JUNCTION     0.25     1.07    10.91     0  00:47        1.07
  YS02005600           JUNCTION     0.24     1.02    10.68     0  00:46        1.02
  YS02005602           JUNCTION     0.55     2.15    10.43     0  00:47        2.15
  YS02005603           JUNCTION     0.17     1.14     9.27     0  00:47        0.58
  YS02005609           JUNCTION     0.07     0.20     9.09     0  00:52        0.20
  YS02005653           JUNCTION     0.12     0.79    11.76     0  00:51        0.79
  YS02005654           JUNCTION     0.13     0.61    11.36     0  00:50        0.59
  YS02005655           JUNCTION     0.05     0.14    10.78     0  00:52        0.14
  YS02005595           JUNCTION     0.34     1.36    11.04     0  00:45        1.36
  YS02005658           JUNCTION     0.10     0.47    11.38     0  00:50        0.43
  YS02005659           JUNCTION     0.06     0.15    10.81     0  00:52        0.15
  YS02005661           JUNCTION     0.14     0.66    11.37     0  00:51        0.66
  YS02005662           JUNCTION     0.05     0.14    10.76     0  00:52        0.14
  YS02005664           JUNCTION     0.15     0.68    11.26     0  00:52        0.68
  YS02005665           JUNCTION     0.05     0.13    10.70     0  00:52        0.13
  YS02005668           JUNCTION     0.06     0.16    10.32     0  00:52        0.16
  YS02005667           JUNCTION     0.33     1.08    11.10     0  00:51        1.08
  YS02005571           JUNCTION     0.23     0.90    10.38     0  00:51        0.86
  YS02005572           JUNCTION     0.15     0.56     9.91     0  00:51        0.52
  YS02005576           JUNCTION     0.10     0.24    10.00     0  00:53        0.24
  YS02005577           JUNCTION     0.09     0.21     9.69     0  00:53        0.21
  YS02005579           JUNCTION     0.10     0.26     9.88     0  00:50        0.26
  YS02005580           JUNCTION     0.07     0.18     9.71     0  00:52        0.18
  YS02005582           JUNCTION     0.10     0.45    10.53     0  00:51        0.45
  YS02005583           JUNCTION     0.06     0.18    10.17     0  00:52        0.18
  YS02005612           JUNCTION     0.38     1.31     9.44     0  00:51        1.31
  YS02005615           JUNCTION     0.05     0.15    11.64     0  00:51        0.15
  YS02005616           JUNCTION     0.04     0.12    10.94     0  00:51        0.12
  YS02005618           JUNCTION     0.09     0.29    11.15     0  00:51        0.29
  YS02005619           JUNCTION     0.06     0.15    10.70     0  00:51        0.15
  YS02005621           JUNCTION     0.10     0.45    11.55     0  00:51        0.32
  YS02005622           JUNCTION     0.04     0.12    11.08     0  00:51        0.12
  YS02005625           JUNCTION     0.04     0.11    11.12     0  00:51        0.10
  YS02005627           JUNCTION     0.12     0.47    11.40     0  00:51        0.47
  YS02005628           JUNCTION     0.04     0.12    11.02     0  00:51        0.12
  YS02005630           JUNCTION     0.11     0.54    11.62     0  00:51        0.54
  YS02005631           JUNCTION     0.05     0.14    11.01     0  00:52        0.14
  YS02005633           JUNCTION     0.10     0.51    11.63     0  00:50        0.50
  YS02005634           JUNCTION     0.06     0.15    10.98     0  00:51        0.15
  YS02005636           JUNCTION     0.13     0.67    11.66     0  00:51        0.66
  YS02005637           JUNCTION     0.06     0.17    10.94     0  00:52        0.17
  YS02005639           JUNCTION     0.11     0.55    11.18     0  00:52        0.55
  YS02005640           JUNCTION     0.06     0.17    10.50     0  00:52        0.17
  YS02005642           JUNCTION     0.08     0.24    11.07     0  00:52        0.24
  YS02005644           JUNCTION     0.19     0.87    11.98     0  00:50        0.87
  YS02005645           JUNCTION     0.09     0.22    11.03     0  00:50        0.22
  YS02005647           JUNCTION     0.22     1.03    11.92     0  00:50        1.03
  YS02005648           JUNCTION     0.09     0.23    11.02     0  00:50        0.23
  YS02005650           JUNCTION     0.13     0.65    11.53     0  00:51        0.64
  YS02005671           JUNCTION     0.04     0.11    10.33     0  00:51        0.11
  YS02005673           JUNCTION     0.08     0.25    10.60     0  00:51        0.25
  YS02005674           JUNCTION     0.06     0.15    10.04     0  00:51        0.15
  YS02005676           JUNCTION     0.00     0.00    10.24     0  00:00        0.00
  YS02005680           JUNCTION     0.05     0.14    10.24     0  00:51        0.14
  YS02005682           JUNCTION     0.00     0.00    10.06     0  00:00        0.00
  YS02005683           JUNCTION     0.03     0.09     9.98     0  00:51        0.09
  YS02005376           JUNCTION     0.67     1.01    11.10     0  00:30        1.01
  YS02005378           JUNCTION     1.22     1.62    11.14     0  00:30        1.62
  YS02005381           JUNCTION     1.14     1.57    11.20     0  00:30        1.57
  YS02005624           JUNCTION     0.23     0.55    11.43     0  00:51        0.55
  YS02005384           JUNCTION     0.37     0.80    10.46     0  00:30        0.53
  YS02005677           JUNCTION     0.06     0.15    10.23     0  00:51        0.15
  YSB1105              JUNCTION     0.27     1.50    10.98     0  00:52        0.79
  YSB1106              JUNCTION     0.31     1.42    11.26     0  00:52        0.95
  YSB1109              JUNCTION     0.39     1.68    11.62     0  00:52        1.28
  YSB1112              JUNCTION     0.42     1.94    12.07     0  00:52        1.54
  YSB1115              JUNCTION     0.39     1.84    12.13     0  00:52        1.49
  YSB1118              JUNCTION     0.41     1.80    12.34     0  00:48        1.54
  YSB1121              JUNCTION     0.48     1.70    12.37     0  00:48        1.70
  YSB1124              JUNCTION     0.34     1.60    12.43     0  00:48        1.55
  YSB1128              JUNCTION     0.52     1.85    12.43     0  00:42        1.49
  YSB1132              JUNCTION     0.58     1.90    12.35     0  00:42        1.62
  YSB1228              JUNCTION     0.06     0.17    11.01     0  00:51        0.17
  YSB1202              JUNCTION     0.48     1.50    12.39     0  00:45        1.46
  YSB1135              JUNCTION     0.71     1.96    12.22     0  00:42        1.81
  YSB1138              JUNCTION     0.80     1.90    12.07     0  00:42        1.90
  YSB1141              JUNCTION     0.83     1.91    11.74     0  00:42        1.86
  YSB1145              JUNCTION     0.84     1.86    11.55     0  00:42        1.84
  YSB1148              JUNCTION     0.90     1.90    11.39     0  00:50        1.89
  YSB1151              JUNCTION     1.07     2.01    11.23     0  00:52        2.00
  YSB1154              JUNCTION     1.21     2.10    11.16     0  00:45        2.10
  YSB1198              JUNCTION     0.26     1.60    12.39     0  00:44        1.17
  YSB1192              JUNCTION     0.47     1.90    12.17     0  00:44        1.70
  YSB6556              JUNCTION     1.03     1.80    10.97     0  00:43        1.80
  YSB1205              JUNCTION     0.64     1.65    12.35     0  00:45        1.65
  YSB1209              JUNCTION     0.63     1.65    12.22     0  00:45        1.65
  YSB1212              JUNCTION     0.54     1.60    12.13     0  00:45        1.59
  YSB1215              JUNCTION     0.53     1.70    12.05     0  00:45        1.66
  YSB1218              JUNCTION     0.52     1.75    11.94     0  00:52        1.71
  YSB1221              JUNCTION     0.53     1.83    11.79     0  00:52        1.56
  YSB1224              JUNCTION     0.50     1.80    11.65     0  00:52        1.34
  YSB1195              JUNCTION     0.42     1.90    12.28     0  00:44        1.59
  YSB1189              JUNCTION     0.57     1.80    11.96     0  00:44        1.80
  YSB1186              JUNCTION     0.62     1.94    11.81     0  00:44        1.74
  YSB1183              JUNCTION     0.76     2.05    11.64     0  00:44        1.88
  YSB1180              JUNCTION     0.78     1.95    11.46     0  00:44        1.83
  YSB1177              JUNCTION     1.04     2.05    11.24     0  00:44        2.01
  YSB1174              JUNCTION     1.08     1.95    11.06     0  00:48        1.95
  YSB1171              JUNCTION     1.24     1.95    10.85     0  00:43        1.95
  YS02006553           JUNCTION     1.23     2.00     8.28     0  00:51        1.99
  YS02006561           JUNCTION     0.46     1.00     7.66     0  00:44        0.94
  YS02006562           JUNCTION     1.00     1.83     8.34     0  00:51        1.83
  YS02006556           JUNCTION     1.20     2.01     8.32     0  00:51        2.01
  YS02006558           JUNCTION     1.24     2.08     8.34     0  00:51        2.08
  YS6132               JUNCTION     0.64     2.90    10.22     0  00:48        2.12
  YS6137               JUNCTION     0.37     2.20    10.00     0  00:50        2.03
  YS6189               JUNCTION     0.49     2.46    10.25     0  00:50        2.23
  YS6184               JUNCTION     0.50     2.65    10.54     0  00:50        2.14
  YS6179               JUNCTION     0.44     2.58    10.56     0  00:50        2.10
  YS6176               JUNCTION     0.34     2.34    10.54     0  00:50        1.92
  YS6171               JUNCTION     0.36     2.10    10.51     0  00:50        1.93
  YS6168               JUNCTION     0.38     2.00    10.51     0  00:50        2.00
  YS6164               JUNCTION     0.20     1.90    10.63     0  00:50        1.90
  YS6162               JUNCTION     0.25     2.10    10.75     0  00:50        1.97
  YS6187               JUNCTION     0.53     2.56    10.34     0  00:50        2.26
  YS6363               JUNCTION     0.40     2.66    10.45     0  00:57        2.24
  YS6360               JUNCTION     0.52     2.56    10.36     0  00:57        2.28
  YS6354               JUNCTION     0.53     2.52    10.67     0  00:50        2.36
  YS6351               JUNCTION     0.63     2.50    10.71     0  00:50        2.46
  YS6350               JUNCTION     0.69     2.50    10.72     0  00:48        2.50
  YS6348               JUNCTION     0.65     2.45    10.85     0  00:48        2.45
  YS6344               JUNCTION     0.46     2.40    10.99     0  01:00        2.26
  YS6375               JUNCTION     0.09     0.33     8.76     0  00:51        0.33
  YS6377               JUNCTION     0.15     0.40     8.76     0  00:52        0.39
  YS6381               JUNCTION     0.17     0.46     8.59     0  00:52        0.46
  YS6386               JUNCTION     0.19     0.53     8.51     0  00:52        0.53
  YS6390               JUNCTION     0.41     0.65     8.34     0  00:52        0.65
  YS6394               JUNCTION     0.11     0.27     8.19     0  00:52        0.27
  YS6404               JUNCTION     0.59     3.00    10.23     0  00:48        1.34
  YS6401               JUNCTION     0.19     0.42     7.64     0  00:54        0.42
  YS02004319           JUNCTION     0.34     1.18    20.80     0  00:44        1.18
  YS02004320           JUNCTION     0.00     0.00    22.64     0  01:02        0.00
  YS02004321           JUNCTION     0.00     0.00    26.80     0  00:54        0.00
  YS02004307           JUNCTION     0.19     0.53    11.06     0  00:49        0.52
  YS02004309           JUNCTION     0.85     1.55    13.07     0  00:33        1.55
  YS02004312           JUNCTION     0.53     1.48    14.91     0  00:42        1.48
  YS02004314           JUNCTION     0.39     1.28    16.99     0  00:44        1.28
  YS02004316           JUNCTION     0.40     1.36    19.13     0  00:44        1.36
  YS02001783           JUNCTION     0.70     1.29     7.43     0  00:44        1.27
  YS02001784           JUNCTION     0.66     1.15     7.21     0  00:50        1.14
  YS02001786           JUNCTION     0.54     0.91     6.94     0  00:44        0.88
  YS02001788           JUNCTION     0.39     0.62     6.60     0  00:47        0.62
  YS02001790           JUNCTION     0.45     0.72     6.37     0  01:01        0.71
  YS02001791           JUNCTION     0.27     0.44     5.91     0  00:55        0.43
  YS02001793           JUNCTION     0.14     0.29     5.12     0  01:09        0.28
  YS02003309           JUNCTION     0.75     1.21     9.77     0  00:25        1.05
  YS02003306           JUNCTION     0.87     1.16     9.60     0  00:25        1.16
  YS02003269           JUNCTION     0.14     0.17     7.76     0  00:44        0.17
  YS02003272           JUNCTION     0.43     1.34     9.07     0  00:26        0.58
  YS02003278           JUNCTION     0.86     1.22     9.14     0  00:26        1.21
  YS02003281           JUNCTION     0.97     1.39     9.47     0  00:43        1.39
  YS02003284           JUNCTION     1.05     1.40     9.41     0  00:26        1.40
  YS02003287           JUNCTION     1.00     1.27     9.34     0  00:26        1.27
  YS02003290           JUNCTION     0.85     1.12     9.41     0  00:26        1.11
  YS02003294           JUNCTION     1.01     1.24     9.42     0  00:26        1.24
  YS02003275           JUNCTION     0.65     1.16     9.07     0  00:26        0.91
  YS02003297           JUNCTION     0.99     1.22     9.43     0  00:26        1.22
  YS02003300           JUNCTION     0.93     1.15     9.42     0  00:25        1.15
  YS02003303           JUNCTION     0.91     1.14     9.46     0  00:25        1.14
  YSB1227              JUNCTION     0.01     0.11    11.01     0  00:51        0.11
  CaochengRainPumpOutfall1 OUTFALL      0.00     0.00     6.00     0  00:00        0.00
  JiankangRainPumpOutfall2 OUTFALL      0.00     0.00     6.00     0  00:00        0.00
  JiankangRainPumpOutfall1 OUTFALL      0.00     0.00     6.00     0  00:00        0.00
  CaochengRainPumpOutfall2 OUTFALL      0.00     0.00     6.00     0  00:00        0.00
  YS02005684           OUTFALL      0.03     0.09     8.49     0  00:51        0.09
  YS02005681           OUTFALL      0.05     0.14     9.36     0  00:51        0.14
  YS02005678           OUTFALL      0.06     0.15     8.69     0  00:51        0.15
  YS02005675           OUTFALL      0.06     0.15     8.69     0  00:51        0.15
  YS02005672           OUTFALL      0.04     0.11     8.44     0  00:51        0.11
  YS02005669           OUTFALL      0.06     0.16     8.87     0  00:52        0.16
  YS02005666           OUTFALL      0.05     0.13     8.81     0  00:52        0.13
  YS02005663           OUTFALL      0.05     0.14     8.87     0  00:52        0.14
  YS02005660           OUTFALL      0.06     0.15     8.96     0  00:52        0.15
  YS02005657           OUTFALL      0.00     0.00     8.74     0  00:00        0.00
  YS02005652           OUTFALL      0.06     0.18     8.80     0  00:51        0.18
  YS02005649           OUTFALL      0.09     0.23     8.93     0  00:50        0.23
  YS02005646           OUTFALL      0.09     0.22     8.22     0  00:50        0.22
  YS02005643           OUTFALL      0.08     0.24     8.80     0  00:52        0.24
  YS02005641           OUTFALL      0.06     0.17     8.87     0  00:52        0.17
  YS02005638           OUTFALL      0.06     0.17     8.83     0  00:52        0.17
  YS02005635           OUTFALL      0.06     0.15     8.81     0  00:51        0.15
  YS02005632           OUTFALL      0.05     0.14     8.70     0  00:52        0.14
  YS02005629           OUTFALL      0.04     0.12     8.59     0  00:51        0.11
  YS02005626           OUTFALL      0.04     0.10     8.63     0  00:51        0.10
  YS02005623           OUTFALL      0.04     0.12     8.59     0  00:51        0.12
  YS02005620           OUTFALL      0.05     0.15     8.94     0  00:51        0.15
  YS02005617           OUTFALL      0.04     0.12     8.96     0  00:51        0.12
  YSB1103              OUTFALL      0.26     0.60     8.60     0  00:50        0.60
  YSB1229              OUTFALL      0.06     0.17     8.97     0  00:51        0.16
  YS02005548           OUTFALL      0.04     0.11     9.11     0  00:51        0.11
  YS02005552           OUTFALL      0.04     0.10     8.73     0  00:51        0.10
  YS02005555           OUTFALL      0.04     0.09     8.82     0  00:52        0.09
  YS02005558           OUTFALL      0.04     0.09     8.80     0  00:52        0.09
  YS02005561           OUTFALL      0.04     0.10     8.78     0  00:52        0.10
  YS02005564           OUTFALL      0.04     0.10     8.57     0  00:52        0.10
  YS02005567           OUTFALL      0.05     0.13     8.66     0  00:52        0.13
  YS02005570           OUTFALL      0.06     0.13     8.85     0  00:52        0.13
  YS02005574           OUTFALL      0.13     0.30     9.14     0  00:51        0.30
  YS02005578           OUTFALL      0.09     0.21     8.99     0  00:53        0.21
  WS02005134           OUTFALL      0.00     0.00     8.74     0  00:00        0.00
  YS02005581           OUTFALL      0.07     0.18     8.98     0  00:52        0.18
  YS02005584           OUTFALL      0.06     0.18     9.14     0  00:52        0.18
  YS02005593           OUTFALL      0.23     0.28     9.00     0  00:40        0.28
  YS02005596           OUTFALL      0.15     0.30     8.84     0  00:45        0.30
  YS02005374           OUTFALL      0.14     0.30     8.54     0  00:46        0.30
  YS02005375           OUTFALL      0.14     0.30     8.69     0  00:46        0.30
  YS02005607           OUTFALL      0.14     0.30     7.53     0  00:46        0.30
  YS02005610           OUTFALL      0.07     0.20     8.81     0  00:52        0.20
  YS02005613           OUTFALL      0.13     0.30     8.58     0  00:50        0.30
  HS02003172           OUTFALL      0.22     0.54     5.99     0  00:53        0.53
  YS6395               OUTFALL      0.11     0.27     6.69     0  00:52        0.27
  YS6405               OUTFALL      0.19     0.41     3.86     0  00:51        0.41
  WSC                  OUTFALL      0.62     0.80     5.00     0  00:36        0.80
  JiankangQianchi      STORAGE      2.84     4.22     5.02     0  01:08        4.20
  CaochengTiaoxuchi    STORAGE      0.95     1.45     6.95     0  01:04        1.45
  XierchiQianchi       STORAGE      7.02     7.47     5.47     0  02:02        7.47
  
  
  *******************
  Node Inflow Summary
  *******************
  
  -------------------------------------------------------------------------------------------------
                                  Maximum  Maximum                  Lateral       Total        Flow
                                  Lateral    Total  Time of Max      Inflow      Inflow     Balance
                                   Inflow   Inflow   Occurrence      Volume      Volume       Error
  Node                 Type           LPS      LPS  days hr:min    10^6 ltr    10^6 ltr     Percent
  -------------------------------------------------------------------------------------------------
  WS02001211           JUNCTION      7.35   218.16     0  01:28      0.0541        1.19       4.363
  WS02001212           JUNCTION      0.00   231.83     0  01:29           0        1.15       2.437
  WS02001213           JUNCTION      0.00   241.72     0  01:29           0        1.14       3.309
  WS02003069           JUNCTION      0.32  2521.75     0  00:50     0.00236        11.2       0.649
  WS02003072           JUNCTION      0.00  2521.57     0  00:50           0        11.1       0.550
  WS02003073           JUNCTION      1.82  3090.37     0  00:50      0.0134        14.6       0.267
  WS02003076           JUNCTION      0.00  3090.63     0  00:50           0        14.5       0.295
  WS02003060           JUNCTION     16.53  2521.48     0  00:50       0.122        11.3       0.527
  WS02003066           JUNCTION      0.00  2303.70     0  00:49           0        10.1       0.103
  WS02003059           JUNCTION      0.00   247.61     0  01:30           0        1.14       5.145
  WS02003115           JUNCTION      0.00   477.12     0  01:07           0        1.31       0.350
  WS02003116           JUNCTION      0.00   274.00     0  00:22           0        1.14       0.722
  WS02003118           JUNCTION      0.11   228.72     0  00:22    3.28e-06        1.14       1.318
  WS02003215           JUNCTION      0.17  2896.99     0  00:52    1.98e-05        3.51       0.761
  WS02003110           JUNCTION      0.18   560.17     0  00:52     0.00132       0.734       1.010
  WS02003111           JUNCTION      1.52  1038.55     0  00:52      0.0107        1.97       0.358
  WS02005155           JUNCTION      0.38   559.94     0  00:52      0.0028       0.733       1.349
  WS02005154           JUNCTION    559.59   559.59     0  00:52       0.729       0.731       0.816
  WS02005193           JUNCTION      0.00   183.48     0  00:26           0      0.0152     137.078
  WS02005196           JUNCTION      0.00   156.43     0  00:27           0     0.00563     582.877
  WS02003067           JUNCTION      0.00  1877.07     0  00:48           0        7.99       0.187
  WS02004401           JUNCTION      0.00  1092.90     0  01:35           0        5.74       0.550
  WS02004402           JUNCTION      0.00  1092.90     0  01:35           0        5.73       0.486
  WS02004403           JUNCTION      0.00  1092.98     0  01:35           0        5.71       0.424
  WS02004404           JUNCTION      0.16  1093.60     0  01:35     0.00119        5.69       0.292
  WS02004406           JUNCTION      0.00  1093.27     0  01:35           0        5.67       0.722
  WS02004409           JUNCTION      0.19  1818.96     0  00:48    0.000134        8.59       0.409
  WS02004410           JUNCTION      0.00  1876.93     0  00:48           0        8.69       0.412
  WS02004411           JUNCTION      0.00  1877.04     0  00:48           0         8.1       0.426
  WS02004412           JUNCTION      0.00  1876.94     0  00:48           0        8.07       0.424
  WS02004413           JUNCTION      0.00  1877.18     0  00:48           0        8.03       0.544
  WS02004405           JUNCTION      0.18  1093.59     0  01:35    0.000454        5.68       0.426
  WS02006109           JUNCTION      1.95  1308.01     0  00:00      0.0097        6.75       0.336
  WS02006110           JUNCTION      0.38  1092.27     0  01:37    0.000373        5.92      -0.330
  WS02006111           JUNCTION      0.04  1176.04     0  00:00    1.59e-05        5.91      -0.298
  WS02006112           JUNCTION      0.48  2307.30     0  00:00    2.63e-05        5.93       0.278
  WS02006113           JUNCTION      0.14  1092.38     0  01:37    7.89e-05         5.9      -0.360
  WS02006115           JUNCTION      0.00  1366.62     0  00:00           0        5.79       0.569
  WS02006116           JUNCTION      0.34  1092.91     0  01:35    0.000423        5.76       0.471
  WS02006230           JUNCTION     10.42  1027.05     0  00:48      0.0757        3.63       0.459
  WS02006231           JUNCTION      0.58   453.37     0  01:05     0.00158         2.1       0.765
  WS02006232           JUNCTION      0.31   453.53     0  01:19    0.000157        2.12       0.852
  WS02006234           JUNCTION      0.13   453.37     0  01:18    4.04e-06        2.13       0.575
  WS02006235           JUNCTION      0.27   415.16     0  01:13     0.00053        2.19       0.500
  WS02006238           JUNCTION      0.00   415.41     0  01:29           0        2.19       0.326
  WS02006240           JUNCTION      0.00   414.95     0  00:58           0        2.22       0.744
  WS02006242           JUNCTION      0.42   415.03     0  00:58    0.000181        2.24       0.878
  WS02006243           JUNCTION      0.71   291.13     0  00:24     0.00156        1.67       0.968
  WS02006245           JUNCTION      0.00   298.36     0  00:24           0        1.68       0.797
  WS02006247           JUNCTION      0.00   310.84     0  00:25           0         1.7       0.708
  WS02006248           JUNCTION      0.00   345.33     0  00:35           0        2.05       0.541
  WS02006249           JUNCTION      0.00  1396.58     0  00:52           0        5.65       0.297
  WS02006239           JUNCTION      0.00   415.12     0  01:29           0        2.21       0.576
  WS02006251           JUNCTION      0.08  1777.99     0  00:52    0.000567        5.99       0.305
  WS02006252           JUNCTION      0.00   781.82     0  00:52           0        2.22      -0.010
  WS02006253           JUNCTION     65.83  1778.17     0  00:52      0.0837         4.8       0.426
  WS02006256           JUNCTION      0.00   300.00     0  00:30           0        1.66       0.061
  WS02004138           JUNCTION      0.00   190.00     0  00:29           0        1.18       0.240
  WS02004139           JUNCTION      0.32   190.32     0  00:33     0.00236        1.18       3.630
  WS02004407           JUNCTION      0.10  1819.62     0  00:48    0.000112        8.65       0.325
  WS02006228           JUNCTION      1.30  1288.74     0  00:48      0.0012        6.73       0.229
  WS02006229           JUNCTION      1.04  2305.98     0  00:48    0.000976        10.2       0.263
  WS02006280           JUNCTION      0.26  2305.34     0  00:48     0.00046        10.1       0.028
  WS02006284           JUNCTION      0.20  2305.51     0  00:48    0.000764        10.1       0.153
  WS02006287           JUNCTION      0.21  2305.61     0  00:48     0.00013        10.1       0.103
  WS02003091           JUNCTION      0.54  1200.35     0  00:00     0.00118        3.58      -1.099
  WS02003203           JUNCTION      0.34  2264.56     0  00:00    0.000138        5.72       0.179
  WS6145               JUNCTION      0.34   224.56     0  00:47    0.000471        0.09       0.387
  WS6147               JUNCTION      0.00   225.02     0  00:47           0       0.079       0.247
  WS6150               JUNCTION      0.23   225.28     0  00:47    0.000607      0.0682       0.490
  WS6152               JUNCTION      0.58   227.62     0  00:47     0.00424      0.0571       0.626
  WS6155               JUNCTION      0.18   222.38     0  00:47     4.7e-05      0.0423       0.583
  WS6156               JUNCTION      0.68   228.54     0  00:47     0.00387      0.0311       0.478
  WS6136               JUNCTION      0.20   688.80     0  00:47       5e-05        1.82       0.051
  WS6140               JUNCTION      0.25   222.92     0  00:47    0.000157        0.11       0.129
  WS6142               JUNCTION      0.26   223.86     0  00:47    0.000194         0.1       0.217
  WS6325               JUNCTION      0.24   107.03     0  00:46    0.000214      0.0883       2.465
  WS6327               JUNCTION      0.20   104.99     0  00:46    0.000509      0.0784       0.486
  WS6329               JUNCTION      0.53   105.30     0  00:46     0.00194      0.0678       0.188
  WS6332               JUNCTION      0.37   105.81     0  00:46    0.000788      0.0551       0.161
  WS6158               JUNCTION      1.87   233.89     0  00:48      0.0121      0.0166      -0.659
  WS6335               JUNCTION      0.71   106.82     0  00:46     0.00369      0.0432       0.405
  WS6338               JUNCTION      0.45   107.49     0  00:46     0.00119      0.0283       0.218
  WS6340               JUNCTION      0.32   108.09     0  00:46    0.000246      0.0155       0.175
  WS6342               JUNCTION      0.63   111.99     0  00:46     0.00316     0.00618      -1.479
  WS6135               JUNCTION      0.15   688.57     0  00:47    4.63e-05        1.89       0.422
  WS6396               JUNCTION      0.00   547.58     0  01:02           0         1.8       0.177
  WS6399               JUNCTION      0.08   547.55     0  01:02    9.19e-05        1.79       0.067
  WS02003082           JUNCTION      0.51   589.69     0  00:39     0.00154        3.54       0.513
  WS02003077           JUNCTION      0.60   590.31     0  00:39     0.00442        3.49       0.208
  WS02003080           JUNCTION      0.00   589.74     0  00:39           0         3.5       0.430
  WS02003083           JUNCTION      0.00   589.60     0  00:39           0        3.54       0.253
  WS02003084           JUNCTION      0.04   589.59     0  00:39    0.000324        3.55       0.263
  WS02003085           JUNCTION      0.00   589.55     0  00:39           0        3.56       0.178
  WS02003086           JUNCTION      0.49   655.05     0  00:01     0.00361        3.57       0.411
  WS02003087           JUNCTION      0.00  1086.59     0  00:00           0        3.58       0.296
  WS02003088           JUNCTION      0.55  2146.84     0  00:00      0.0017        3.61       0.386
  WS02003089           JUNCTION      0.26  1590.77     0  00:00    0.000483         3.6      -0.259
  WS02003090           JUNCTION      0.42  1113.92     0  00:00    0.000728        3.58      -0.667
  WS02003081           JUNCTION      0.20   589.71     0  00:39    0.000116        3.52       0.400
  WS02003122           JUNCTION      0.00   217.40     0  00:29           0        1.11       1.348
  WS02003187           JUNCTION    801.33   978.32     0  00:52        1.15        2.22       0.582
  WS02003188           JUNCTION      0.55   403.61     0  01:02     0.00133        1.83       0.679
  WS02003190           JUNCTION      0.00   608.67     0  01:02           0        2.77       0.483
  WS02003193           JUNCTION   1189.11  1446.85     0  00:52        1.65        2.68       0.657
  WS02003195           JUNCTION      0.33   307.08     0  00:01    0.000945         1.1       1.379
  WS02003196           JUNCTION      0.00   380.55     0  00:01           0         1.1       1.277
  WS02003198           JUNCTION    179.86   452.37     0  00:01       0.247        1.12       1.559
  WS02003200           JUNCTION      4.23   651.62     0  00:01       0.029       0.876      -0.921
[...]
  WS02003087WS02003086        1.74      1.74      1.81      1.79         0.01
  WS02003086WS02003085        1.73      1.73      1.77      1.83         0.01
  WS02003085WS02003084        1.73      1.74      1.74      1.75         1.73
  WS02003084WS02003083        1.73      1.75      1.73      1.91         1.73
  WS02003083WS02003082        1.72      1.72      1.75      1.82         0.01
  WS02003082WS02003081        1.71      1.72      1.71      1.81         1.71
  WS02003081WS02003080        1.71      1.71      1.71      1.72         1.71
  WS02003080WS02003077        0.76      0.76      1.71      1.71         0.01
  WS02003073WS02003076        0.87      0.87      1.48      0.36         0.01
  HS02004901HS02004770        0.75      0.75      0.76      0.05         0.01
  HS02004876HS02004881        0.80      0.82      0.80      1.66         0.80
  HS02004870HS02004876        0.73      0.73      0.82      0.01         0.01
  HS02004049HS02004052        0.25      0.25      0.28      0.01         0.01
  HS02004048HS02004049        0.37      0.51      0.37      0.59         0.37
  HS02004046HS02004048        0.26      0.26      0.51      0.01         0.01
  HS02004043HS02004046        0.21      0.21      0.29      0.10         0.10
  HS02004041HS02004043        0.08      0.08      0.21      0.01         0.01
  HS02004038HS02004041        0.04      0.04      0.08      0.01         0.01
  HS02004028HS02004027        0.01      0.14      0.01      0.16         0.01
  HS02003143HS02003065        0.61      0.61      0.87      0.01         0.01
  HS02004842HS02004848        0.63      0.63      0.87      0.01         0.01
  HS02004837HS02004842        0.68      0.68      0.87      0.01         0.01
  HS02004830HS02004837        0.68      0.68      0.74      0.01         0.01
  HS02004824HS02004830        0.74      0.74      0.79      0.01         0.01
  HS02004817HS02004824        0.79      0.79      1.60      0.01         0.01
  HS02004770HS02004777        0.75      0.75      0.76      0.01         0.01
  HS02004799HS02004480        0.96      0.96      1.03      0.98         0.01
  HS02004792HS02004799        0.88      0.88      1.03      0.01         0.01
  HS02004788HS02004792        0.70      0.70      0.88      0.01         0.01
  HS02004785HS02004788        0.70      0.71      0.70      1.48         0.60
  HS02004777HS02004785        0.71      0.71      0.76      0.01         0.01
  HS02004480HS02004478        0.90      0.96      0.90      1.73         0.90
  HS02004479HS02004480        0.96      0.96      1.00      0.01         0.01
  HS02003013HS02003010        0.49      0.49      0.55      0.34         0.34
  HS02003010HS02003007        0.47      0.48      0.49      0.52         0.47
  HS02003007HS02003004        0.49      0.49      0.59      0.29         0.29
  HS02003004HS02003001        0.01      0.59      0.01      1.35         0.01
  HS02003065HS02003056        0.85      0.85      1.02      0.01         0.01
  HS02003042HS02003053        0.43      0.43      0.80      0.01         0.01
  HS02003028HS02003021        0.34      0.34      0.42      0.01         0.01
  HS02003021HS02003018        0.46      0.46      0.47      0.19         0.19
  HS02003018HS02003017        0.48      0.48      0.48      0.10         0.09
  HS02003017HS02003013        0.48      0.48      0.49      0.40         0.38
  HS02004862HS02004870        0.70      0.70      0.73      0.19         0.19
  HS02004848HS02004852        0.63      0.63      0.67      0.02         0.01
  HS02004856HS02004862        0.65      0.65      0.70      0.01         0.01
  HS02004852HS02004856        0.67      0.67      0.69      0.02         0.01
  HS02004024HS02004022        0.01      0.01      0.17      0.01         0.01
  HS02004022HS02004021        0.17      0.17      0.27      0.01         0.01
  HS02004021HS02004019        0.27      0.27      0.35      0.20         0.21
  HS02004019HS02003162        0.01      0.35      0.01      0.38         0.01
  HS02004052HS02004053        0.27      0.28      0.27      0.29         0.27
  HS02003122HS02003125        1.54      1.54      1.55      0.23         0.26
  HS02003119HS02003122        1.53      1.53      1.55      0.01         0.01
  HS02003116HS02003119        1.41      1.41      1.53      0.01         0.01
  HS02003111HS02003116        0.01      0.01      1.49      0.01         0.01
  HS02004018HS02004019        0.20      0.20      0.35      0.01         0.01
  HS02003056HS02003136        0.88      0.88      1.56      0.01         0.01
  HS02004017HS02004018        0.17      0.17      0.20      0.01         0.01
  HS02004013HS02004017        0.01      0.01      0.17      0.03         0.01
  HS02004802HS02004478        0.91      0.91      0.98      0.27         0.01
  HS02004478WS02006287        0.76      0.76      0.97      0.01         0.01
  HS02003079HS02003084        0.04      0.04      0.06      0.01         0.01
  HS02003150HS02003148        0.01      0.01      0.06      0.01         0.01
  HS02003148HS02003145        0.06      0.06      0.22      0.02         0.01
  HS02003145HS02003143        0.22      0.22      0.58      0.21         0.19
  HS02003136WS02003203        1.57      1.58      1.68      0.01         0.01
  HS02003084HS02003088        0.06      0.06      0.10      0.01         0.01
  HS02003077HS02003079        0.02      0.02      0.04      0.01         0.01
  HS02003108HS02003111        0.23      0.23      0.48      0.04         0.04
  HS02003100HS02003108        0.13      0.13      0.23      0.01         0.01
  HS02003088HS02003100        0.11      0.11      0.13      0.07         0.06
  HS02004817HS02004807        0.95      0.95      1.60      0.01         0.01
  HS02004807HS02004802        0.95      0.95      0.97      0.43         0.44
  HS02003053HS02003056        0.80      0.80      1.02      0.01         0.01
  HS02003039HS02003042        0.52      0.52      0.56      0.34         0.02
  HS02003036HS02003039        0.28      0.28      0.34      0.05         0.05
  YS02001759YS02001757        0.26      0.26      0.27      0.24         0.21
  YS02001762YS02001759        0.25      0.25      0.26      0.19         0.16
  YS02001765YS02001762        0.25      0.25      0.25      0.08         0.08
  YS02001770YS02001767        0.24      0.27      0.24      0.86         0.24
  YS02001774YS02001770        0.25      0.25      0.29      0.01         0.01
  YS02001779YS02001774        0.22      0.22      0.29      0.01         0.01
  YS02001767YS02001765        0.24      0.24      0.25      0.26         0.21
  YS02006561YS02001783        0.60      0.60      0.82      0.01         0.01
  YS02001783YS02001784        0.79      0.82      0.79      1.02         0.79
  YS02001784YS02001785        0.66      0.79      0.66      1.40         0.66
  YS02001790YS02001791        0.01      0.01      0.01      0.78         0.01
  YS02001910YS02001907        0.86      0.86      1.11      0.15         0.15
  YS02001786YS02001788        0.01      0.66      0.01      1.19         0.01
  YS02001915YS02001910        0.75      0.75      0.86      0.01         0.02
  YS02001918YS02001915        0.65      0.65      0.75      0.01         0.01
  YS02001923YS02001920        0.58      0.58      0.67      0.01         0.01
  YS02001926YS02001923        0.30      0.30      0.32      0.11         0.01
  YS02001929YS02001926        0.16      0.16      0.32      0.01         0.01
  YS02001932YS02001929        0.13      0.13      0.16      0.01         0.01
  YS02001935YS02001932        0.01      0.01      0.12      0.01         0.01
  YS02001920YS02001918        0.65      0.65      0.67      0.01         0.01
  YS02003290YS02003287        1.65      1.65      1.69      0.01         0.01
  YS02003294YS02003290        1.65      1.65      1.73      0.04         0.01
  YS02003297YS02003294        1.72      1.72      1.72      0.20         0.24
  YS02003275YS02003272        1.57      1.62      1.57      1.67         1.57
  YS02003300YS02003297        1.65      1.65      1.70      0.01         0.01
  YS02003303YS02003300        1.63      1.63      1.67      0.01         0.01
  YS02005582YS02005583        0.01      0.04      0.01      0.14         0.01
  YS02003272YS02003269        0.01      1.60      0.01      1.66         0.01
  YS02003278YS02003275        1.64      1.70      1.64      1.77         1.64
  YS02003281YS02003278        1.67      1.67      1.69      1.65         1.65
  YS02003284YS02003281        1.67      1.67      1.69      1.03         0.46
  YS02003287YS02003284        1.68      1.68      1.71      0.01         0.06
  YS02003306YS02003303        1.63      1.63      1.65      0.63         0.63
  YS02003309YS02003306        1.60      1.60      1.63      0.01         0.01
  YS02005600YS02005375        0.26      0.26      0.27      0.27         0.26
  YS02005384YS02005593        0.01      1.16      0.01      1.21         0.01
  YS02005595YS02005596        0.32      0.33      0.32      0.35         0.32
  YS02005612YS02005613        0.07      0.07      0.84      0.24         0.01
  YS02005571YS02005572        0.18      0.37      0.18      0.52         0.18
  YS02005572YS02005574        0.12      0.18      0.12      0.21         0.12
  YS02005579YS02005580        0.01      0.01      0.01      0.12         0.01
  YS02006553YS02006556        0.98      0.98      1.15      0.01         0.01
  YS02006556YS02006558        1.05      1.05      1.18      0.01         0.01
  YSB6556YSB1171              1.11      1.11      1.66      0.01         0.01
  YSB1202YSB1205              0.62      0.62      0.69      0.01         0.01
  YSB1205YSB1209              0.69      0.69      0.69      0.68         0.62
  YSB1209YSB1212              0.63      0.69      0.63      1.04         0.63
  YSB1212YSB1215              0.63      0.63      0.65      0.45         0.44
  YSB1215YSB1218              0.65      0.65      0.65      0.52         0.50
  YSB1218YSB1221              0.59      0.59      0.69      0.47         0.47
  YSB1221YSB1224              0.69      0.69      0.72      0.59         0.58
  YSB1224YSB1105              0.31      0.84      0.31      1.13         0.31
  YSB1189YSB1186              0.67      0.67      0.80      0.24         0.24
  YS02001907YS02006553        1.42      1.42      1.51      0.01         0.01
  YS02006562YS02006558        0.83      0.83      1.18      0.01         0.01
  YS02006558YS02006561        0.69      0.97      0.69      1.33         0.69
  YS6184YS6187                0.23      0.23      0.23      0.16         0.17
  YS6360YS6363                0.20      0.23      0.20      0.89         0.19
  YS6354YS6360                0.28      0.28      0.29      0.29         0.27
  YS6351YS6354                0.28      0.32      0.28      0.54         0.28
  YS6350YS6351                0.32      0.35      0.32      0.92         0.32
  YS6348YS6350                0.33      0.33      0.35      0.28         0.28
  YS6344YS6348                0.33      0.33      0.40      0.01         0.01
  YS6363YS6132                0.20      0.20      0.35      0.01         0.01
  YS6137YS6132                0.26      0.26      0.48      0.01         0.02
  YS6189YS6137                0.26      0.26      0.29      1.66         0.01
  YS6187YS6189                0.22      0.23      0.23      0.39         0.01
  YS6179YS6184                0.21      0.21      0.23      0.01         0.01
  YS6176YS6179                0.16      0.16      0.21      0.01         0.01
  YS6171YS6176                0.18      0.18      0.21      0.06         0.07
  YS6168YS6171                0.17      0.17      0.18      0.14         0.13
  YS6164YS6168                0.12      0.12      0.17      0.01         0.01
  YS6162YS6164                0.16      0.16      0.18      0.01         0.01
  YS6132YS6404                0.02      0.24      0.02      0.39         0.01
  YSB1106YSB1105              0.08      0.26      0.08      0.31         0.08
  YSB1109YSB1106              0.26      0.32      0.26      0.48         0.26
  YSB1112YSB1109              0.32      0.33      0.32      0.36         0.32
  YSB1115YSB1112              0.30      0.30      0.33      0.12         0.11
  YSB1118YSB1115              0.33      0.34      0.33      0.36         0.33
  YSB1121YSB1118              0.34      0.37      0.34      0.49         0.34
  YSB1124YSB1121              0.33      0.33      0.37      0.01         0.01
  YSB1105YSB1103              0.13      0.13      0.17      0.17         0.13
  YS02001745YS02001748        0.01      0.01      0.03      0.01         0.01
  YS02001748YS02001751        0.06      0.06      0.10      0.01         0.01
  YS02001751YS02001754        0.10      0.10      0.17      0.01         0.01
  YS02001754YS02001757        0.17      0.17      0.27      0.01         0.01
  YS02001882YS02001884        0.76      0.76      0.77      0.01         0.01
  YS02001884YS02001887        0.79      0.79      0.81      0.01         0.01
  YS02001890YS02001895        0.75      0.75      0.86      0.01         0.01
  YS02001895YS02001898        0.74      0.74      0.75      0.01         0.01
  YS02001898YS02001901        0.75      0.75      0.79      0.01         0.01
  YS02001901YS02001904        0.78      0.78      0.79      0.01         0.01
  YS02001904YS02001907        0.78      0.78      1.15      0.01         0.01
  YS02001887YS02001890        0.83      0.83      0.84      0.25         0.01
  YS02004309YS02004307        0.24      1.10      0.24      1.08         0.24
  YS02004319YS02004316        0.39      0.39      0.41      0.01         0.01
  YS02005376YS02005378        1.39      1.39      1.85      0.01         0.01
  YS02005378YS02005381        1.82      1.82      1.85      0.01         0.01
  YS02005381YS02005384        1.16      1.16      1.82      1.83         0.01
  YS02005598YS02005374        0.25      0.25      0.27      0.27         0.25
  YS02005602YS02005603        0.24      0.58      0.24      0.73         0.24
  YS02005603YS02005607        0.24      0.24      0.25      0.25         0.24
  YS02005618YS02005619        0.01      0.01      0.01      0.04         0.01
  YS02005621YS02005622        0.01      0.02      0.01      0.07         0.01
  YS02005624YS02005625        0.01      0.01      0.26      0.04         0.01
  YS02005630YS02005631        0.01      0.07      0.01      0.11         0.01
  YS02005633YS02005634        0.01      0.05      0.01      0.08         0.01
  YS02005636YS02005637        0.01      0.10      0.01      0.14         0.01
  YS02005639YS02005640        0.01      0.07      0.01      0.10         0.01
  YS02005627YS02005628        0.01      0.06      0.01      0.28         0.01
  YS02005644YS02005645        0.01      0.20      0.01      0.24         0.01
  YS02005650YS02005651        0.01      0.10      0.01      0.18         0.01
  YS02005653YS02005654        0.09      0.09      0.10      0.09         0.09
  YS02005654YS02005655        0.01      0.10      0.01      0.18         0.01
  YS02005658YS02005659        0.01      0.05      0.01      0.09         0.01
  YS02005661YS02005662        0.01      0.11      0.01      0.22         0.01
  YS02005664YS02005665        0.01      0.14      0.01      0.53         0.01
  YS02005667YS02005668        0.01      0.01      0.67      0.20         0.01
  YS02005647YS02005648        0.01      0.25      0.01      0.39         0.01
  YS02004312YS02004309        0.65      0.65      1.10      0.01         0.01
  YS02004314YS02004312        0.44      0.44      0.65      0.01         0.01
  YS02004316YS02004314        0.41      0.41      0.44      0.34         0.34
  YS02004320YS02004319        0.01      0.01      0.29      0.01         0.01
  YS6404YS6401                0.01      0.02      0.01      0.88         0.01
  YSB1132YSB1135              0.70      0.70      0.77      0.01         0.01
  YSB1135YSB1138              0.77      0.77      0.81      0.01         0.01
  YSB1138YSB1141              0.81      0.81      0.89      0.55         0.55
  YSB1141YSB1145              0.87      0.87      0.90      0.53         0.50
  YSB1148YSB1151              0.97      0.97      1.25      0.01         0.01
  YSB1151YSB1154              1.08      1.08      1.43      0.01         0.01
  YSB1154YSB6556              1.11      1.11      1.43      0.56         0.01
  YSB1128YSB1132              0.67      0.67      0.70      0.01         0.01
  YSB1145YSB1148              0.90      0.90      0.97      0.01         0.01
  YSB1198YSB1195              0.36      0.36      0.61      0.01         0.01
  YSB1195YSB1192              0.61      0.61      0.63      0.01         0.01
  YSB1192YSB1189              0.63      0.63      0.67      0.01         0.01
  YSB1186YSB1183              0.74      0.74      0.87      0.01         0.01
  YSB1183YSB1180              0.87      0.87      0.91      0.28         0.29
  YSB1180YSB1177              0.91      0.91      1.28      0.01         0.01
  YSB1177YSB1174              1.28      1.28      1.55      0.29         0.30
  YSB1174YSB1171              1.22      1.22      1.62      0.23         0.23
  YSB1171HS02004479           0.93      0.93      1.38      0.01         0.01
  HS02003001HS02003166        0.01      0.01      0.11      0.01         0.01
  YS02004307HS02004052        0.01      0.01      0.28      0.01         0.01
  HS02004881HS02006253        0.80      0.80      1.57      0.01         0.01
  WS0200404049WS6136          0.26      0.26      0.37      0.01         0.01
  HS02003125WS02003215        1.55      1.55      1.57      0.01         0.01
  YS02001793JiankangQianchi        0.01      0.01      2.03      0.01         0.01
  YS02001757CaochengTiaoxuchi        0.27      0.27      0.70      0.17         0.17
  WS02004041WS6409            1.27      1.27      1.35      1.36         1.27
  WSF200WS02003060            0.37      0.37      0.68      0.01         0.01
  HS02004053WS02004407        0.27      0.27      1.29      0.01         0.01
  HS02003036HS02003028        0.28      0.28      0.40      0.01         0.01
  
  
  ***************
  Pumping Summary
  ***************
  
  ---------------------------------------------------------------------------------------------------------
                                                  Min       Avg       Max     Total     Power    % Time Off
                        Percent   Number of      Flow      Flow      Flow    Volume     Usage    Pump Curve
  Pump                 Utilized   Start-Ups       LPS       LPS       LPS  10^6 ltr     Kw-hr    Low   High
  ---------------------------------------------------------------------------------------------------------
  CaochengSewagePump1     80.67           1      0.00    200.00    200.00     1.188      9.12    0.0    0.0
  CaochengSewagePump2     48.58           1      0.00    200.00    200.00     0.715      5.82    0.0    0.0
  CaochengRainPump1       45.20           1      0.00    683.00    683.00     2.272      3.93    0.0   31.3
  CaochengRainPump2       40.82           1      0.00    683.00    683.00     2.052      3.45    0.0   34.7
  JiankangSewagePump      75.13           1      0.00    300.00    300.00     1.659     25.85    0.0    0.0
  JiankangRainPump1       42.50           5      0.00   1000.00   1000.00     3.128     20.96    0.0    0.0
  JiankangRainPump2        0.00           0      0.00      0.00      0.00     0.000      0.00    0.0    0.0
  XierchiSewagePump1      91.84           1      0.00     95.00     95.00     0.642      3.96    0.0    0.0
  XierchiSewagePump2      76.31           1      0.00     95.00     95.00     0.534      3.12    0.0    0.0
  XierchiSewagePump3       0.00           0      0.00      0.00      0.00     0.000      0.00    0.0    0.0
  XierchiSewagePump4       0.00           0      0.00      0.00      0.00     0.000      0.00    0.0    0.0
  

  Analysis begun on:  Wed Oct 19 12:56:21 2022
  Analysis ended on:  Wed Oct 19 13:27:59 2022
  Total elapsed time: 00:31:38