
  EPA STORM WATER MANAGEMENT MODEL - VERSION 5.1 (Build 5.3.0.dev0)
  --------------------------------------------------------------

  WARNING 04: minimum elevation drop used for Conduit WS02004404WS02004405
  WARNING 03: negative offset ignored for Link YS02001904YS02001907
  
  *********************************************************
  NOTE: The summary statistics displayed in this report are
  based on results found at every computational time step,  
  not just on results from each reporting time step.
  *********************************************************
  
  ****************
  Analysis Options
  ****************
  Flow Units ............... LPS
  Process Models:
    Rainfall/Runoff ........ YES
    RDII ................... NO
    Snowmelt ............... NO
    Groundwater ............ NO
    Flow Routing ........... YES
    Ponding Allowed ........ NO
    Water Quality .......... NO
  Infiltration Method ...... HORTON
  Flow Routing Method ...... DYNWAVE
  Surcharge Method ......... EXTRAN
  Starting Date ............ 03/31/2017 00:00:00
  Ending Date .............. 03/31/2017 03:00:00
  Antecedent Dry Days ...... 8.0
  Report Time Step ......... 00:00:30
  Wet Time Step ............ 00:01:00
  Dry Time Step ............ 00:01:00
  Routing Time Step ........ 30.00 sec
  Variable Time Step ....... YES
  Maximum Trials ........... 8
  Number of Threads ........ 6
  Head Tolerance ........... 0.001500 m
  
  
  **************************        Volume         Depth
  Runoff Quantity Continuity     hectare-m            mm
  **************************     ---------       -------
  Total Precipitation ......         8.786        74.557
  Evaporation Loss .........         0.000         0.000
  Infiltration Loss ........         0.315         2.672
  Surface Runoff ...........         7.857        66.677
  Final Storage ............         0.624         5.296
  Continuity Error (%) .....        -0.117
  
  
  **************************        Volume        Volume
  Flow Routing Continuity        hectare-m      10^6 ltr
  **************************     ---------     ---------
  Dry Weather Inflow .......         0.171         1.714
  Wet Weather Inflow .......         7.842        78.420
  Groundwater Inflow .......         0.000         0.000
  RDII Inflow ..............         0.000         0.000
  External Inflow ..........         0.033         0.327
  External Outflow .........         4.402        44.018
  Flooding Loss ............         3.428        34.278
  Evaporation Loss .........         0.000         0.000
  Exfiltration Loss ........         0.000         0.000
  Initial Stored Volume ....         0.303         3.031
  Final Stored Volume ......         0.549         5.489
  Continuity Error (%) .....        -0.351
  
  
  *************************
  Highest Continuity Errors
  *************************
  Node WS02005193 (57.99%)
  Node YS02001884 (24.38%)
  Node YS02001774 (10.88%)
  Node YS02004320 (7.29%)
  Node HS02003116 (5.60%)
  
  
  ***************************
  Time-Step Critical Elements
  ***************************
  Link YS02005655YS02005657 (37.97%)
  Link WS02006252WS02006251 (24.92%)
  Link WS02004041WS6409 (21.19%)
  Link WS02006280WS02006229 (1.70%)
  Link WS02003073WS02003076 (1.69%)
  
  
  ********************************
  Highest Flow Instability Indexes
  ********************************
  Link WS02006238WS02006235 (70)
  Link WS02003200WS02003201 (67)
  Link WS02003215WS02003116 (65)
  Link WS02003122WS02003187 (65)
  Link WS02003203WS02003091 (63)
  
  
  *************************
  Routing Time Step Summary
  *************************
  Minimum Time Step           :     0.50 sec
  Average Time Step           :     0.97 sec
  Maximum Time Step           :    30.00 sec
  Percent in Steady State     :     0.00
  Average Iterations per Step :     6.26
  Percent Not Converging      :    37.33
  
  
  ***************************
  Subcatchment Runoff Summary
  ***************************
  
  ------------------------------------------------------------------------------------------------------------------------------
                            Total      Total      Total      Total     Imperv       Perv      Total       Total     Peak  Runoff
                           Precip      Runon       Evap      Infil     Runoff     Runoff     Runoff      Runoff   Runoff   Coeff
  Subcatchment                 mm         mm         mm         mm         mm         mm         mm    10^6 ltr      LPS
  ------------------------------------------------------------------------------------------------------------------------------
  sub0                      74.56       0.00       0.00       0.73      67.20       4.20      71.39        0.06    44.99   0.958
  sub1                      74.56       0.00       0.00       1.14      62.91       6.39      69.30        0.46   297.87   0.930
  sub2                      74.56       0.00       0.00       3.84      44.15      17.95      62.10        0.58   300.63   0.833
  sub3                      74.56       0.00       0.00       3.84      43.51      16.44      59.94        1.35   644.78   0.804
  sub4                      74.56       0.00       0.00       1.14      60.39       6.06      66.45        1.39   713.12   0.891
  sub5                      74.56       0.00       0.00       0.73      65.73       4.12      69.86        0.79   513.68   0.937
  sub6                      74.56       0.00       0.00       0.73      65.06       4.09      69.15        1.79  1083.26   0.927
  sub7                      74.56       0.00       0.00       0.93      65.09       5.33      70.42        0.24   168.51   0.945
  sub8                      74.56       0.00       0.00       0.93      64.82       5.31      70.13        0.45   305.93   0.941
  sub9                      74.56       0.00       0.00       0.93      64.76       5.30      70.07        0.34   228.64   0.940
  sub10                     74.56       0.00       0.00       0.83      65.19       4.71      69.90        0.77   508.40   0.937
  sub11                     74.56       0.00       0.00       0.83      65.63       4.74      70.36        0.82   565.89   0.944
  sub12                     74.56       0.00       0.00       1.35      62.62       7.69      70.31        0.61   461.71   0.943
  sub13                     74.56       0.00       0.00       3.53      47.05      18.48      65.52        0.78   475.83   0.879
  sub14                     74.56       0.00       0.00       0.93      64.71       5.30      70.01        0.67   449.92   0.939
  sub15                     74.56       0.00       0.00       3.11      49.70      16.32      66.03        1.14   690.01   0.886
  sub16                     74.56       0.00       0.00       3.43      48.12      18.60      66.71        0.70   465.52   0.895
  sub17                     74.56       0.00       0.00       3.32      48.76      17.98      66.74        0.57   377.03   0.895
  sub18                     74.56       0.00       0.00       0.93      65.27       5.34      70.62        0.56   409.79   0.947
  sub19                     74.56       0.00       0.00       3.22      49.41      17.37      66.78        0.21   138.50   0.896
  sub20                     74.56       0.00       0.00       0.93      65.07       5.33      70.39        0.49   347.58   0.944
  sub21                     74.56       0.00       0.00       1.25      63.19       7.09      70.28        0.36   262.46   0.943
  sub22                     74.56       0.00       0.00       4.46      40.70      22.52      63.22        3.99  2289.95   0.848
  sub23                     74.56       0.00       0.00       3.84      45.03      20.11      65.14        3.11  1903.40   0.874
  sub24                     74.56       0.00       0.00       1.45      61.69       8.23      69.91        2.51  1815.13   0.938
  sub25                     74.56       0.00       0.00       0.73      67.31       4.20      71.51        0.93   730.20   0.959
  sub26                     74.56       0.00       0.00       2.49      55.15      14.20      69.35        0.99   787.50   0.930
  sub27                     74.56       0.00       0.00       0.93      64.63       5.29      69.92        1.01   676.86   0.938
  sub28                     74.56       0.00       0.00       0.83      65.29       4.71      70.01        1.10   731.00   0.939
  sub29                     74.56       0.00       0.00       0.83      64.18       4.64      68.82        1.11   659.30   0.923
  sub30                     74.56       0.00       0.00       0.83      66.24       4.77      71.01        1.60  1207.80   0.952
  sub31                     74.56       0.00       0.00       1.76      59.91      10.04      69.95        1.48  1137.77   0.938
  sub32                     74.56       0.00       0.00       0.83      65.84       4.75      70.59        1.41  1003.91   0.947
  sub33                     74.56       0.00       0.00       1.35      62.67       7.70      70.37        1.29   975.39   0.944
  sub34                     74.56       0.00       0.00       5.19      36.20      28.07      64.27        1.43   940.31   0.862
  sub35                     74.56       0.00       0.00       0.83      67.02       4.82      71.84        0.25   218.02   0.964
  sub36                     74.56       0.00       0.00       2.28      56.49      12.99      69.48        0.60   473.67   0.932
  sub37                     74.56       0.00       0.00       4.05      44.28      22.69      66.97        0.51   385.47   0.898
  sub38                     74.56       0.00       0.00       3.63      47.24      20.57      67.82        1.29  1012.11   0.910
  sub39                     74.56       0.00       0.00       0.83      66.71       4.80      71.52        0.76   614.75   0.959
  sub40                     74.56       0.00       0.00       0.83      66.75       4.81      71.56        0.83   678.76   0.960
  sub41                     74.56       0.00       0.00       1.66      60.76       9.49      70.25        1.35  1059.09   0.942
  sub42                     74.56       0.00       0.00       0.93      65.95       5.40      71.34        0.72   573.06   0.957
  sub43                     74.56       0.00       0.00       3.95      44.68      21.43      66.11        0.54   362.30   0.887
  sub44                     74.56       0.00       0.00       0.73      66.08       4.14      70.22        0.79   532.92   0.942
  sub45                     74.56       0.00       0.00       1.76      59.24       9.84      69.08        1.27   862.16   0.927
  sub46                     74.56       0.00       0.00       6.54      26.83      34.30      61.13        0.43   245.13   0.820
  sub47                     74.56       0.00       0.00       0.83      65.89       4.75      70.64        0.54   387.91   0.947
  sub48                     74.56       0.00       0.00       0.93      65.10       5.33      70.43        0.54   382.39   0.945
  sub49                     74.56       0.00       0.00       0.83      65.53       4.73      70.26        0.64   437.70   0.942
  sub50                     74.56       0.00       0.00       0.83      65.57       4.73      70.31        0.49   338.51   0.943
  sub51                     74.56       0.00       0.00       0.83      66.02       4.76      70.78        0.33   244.74   0.949
  sub52                     74.56       0.00       0.00       0.73      66.16       4.15      70.30        0.76   516.04   0.943
  sub53                     74.56       0.00       0.00       0.83      65.84       4.75      70.59        0.71   509.72   0.947
  sub54                     74.56       0.00       0.00       0.73      65.67       4.12      69.79        0.42   268.76   0.936
  sub55                     74.56       0.00       0.00       0.83      65.24       4.71      69.95        0.56   370.03   0.938
  sub56                     74.56       0.00       0.00       1.97      56.66      10.44      67.10        0.95   553.28   0.900
  sub57                     74.56       0.00       0.00       3.22      48.87      16.61      65.48        0.42   249.95   0.878
  sub58                     74.56       0.00       0.00       7.58      19.46      33.45      52.91        1.96   827.01   0.710
  sub59                     74.56       0.00       0.00       7.99      16.52      30.47      47.00        1.08   404.02   0.630
  sub60                     74.56       0.00       0.00       1.25      62.88       7.05      69.93        0.92   642.68   0.938
  sub61                     74.56       0.00       0.00       1.76      59.41       9.89      69.30        1.27   891.87   0.929
  sub62                     74.56       0.00       0.00       0.83      65.07       4.70      69.77        1.91  1245.50   0.936
  sub67                     74.56       0.00       0.00       0.83      65.25       4.71      69.96        1.30   863.53   0.938
  sub68                     74.56       0.00       0.00       1.45      61.17       8.13      69.30        1.91  1278.47   0.929
  sub71                     74.56       0.00       0.00       0.83      64.31       4.65      68.96        1.80  1086.24   0.925
  sub72                     74.56       0.00       0.00       0.73      64.08       4.04      68.12        0.94   523.19   0.914
  sub73                     74.56       0.00       0.00       2.18      57.20      12.41      69.61        0.07    53.61   0.934
  sub74                     74.56       0.00       0.00       3.32      49.22      18.61      67.83        0.11    82.01   0.910
  sub75                     74.56       0.00       0.00       3.11      50.74      17.58      68.32        0.15   116.82   0.916
  sub76                     74.56       0.00       0.00       1.87      59.26      10.64      69.90        0.17   132.27   0.938
  sub77                     74.56       0.00       0.00       1.76      60.09      10.09      70.18        0.11    88.14   0.941
  sub78                     74.56       0.00       0.00       1.35      62.60       7.69      70.29        0.19   144.78   0.943
  sub79                     74.56       0.00       0.00       2.49      54.65      13.89      68.54        0.18   126.90   0.919
  sub80                     74.56       0.00       0.00       3.43      48.44      19.09      67.54        0.20   145.57   0.906
  sub81                     74.56       0.00       0.00       3.84      45.45      21.04      66.49        0.20   140.76   0.892
  sub82                     74.56       0.00       0.00       3.84      45.54      21.21      66.75        0.20   143.21   0.895
  sub83                     74.56       0.00       0.00       3.95      44.89      21.90      66.79        0.23   163.74   0.896
  sub84                     74.56       0.00       0.00       3.63      46.79      19.80      66.59        0.36   245.25   0.893
  sub85                     74.56       0.00       0.00       2.49      54.59      13.85      68.45        0.30   215.39   0.918
  sub86                     74.56       0.00       0.00       2.70      53.24      15.00      68.25        0.33   235.21   0.915
  sub87                     74.56       0.00       0.00       3.63      46.95      20.09      67.03        0.20   143.68   0.899
  sub88                     74.56       0.00       0.00       3.53      47.70      19.60      67.30        0.21   149.04   0.903
  sub89                     74.56       0.00       0.00       3.22      50.00      18.12      68.12        0.18   138.91   0.914
  sub90                     74.56       0.00       0.00       2.80      52.80      15.79      68.59        0.17   128.47   0.920
  sub91                     74.56       0.00       0.00       2.80      53.01      15.96      68.97        0.12    99.66   0.925
  sub92                     74.56       0.00       0.00       3.22      50.22      18.37      68.59        0.10    85.21   0.920
  sub93                     74.56       0.00       0.00       3.22      50.24      18.40      68.64        0.12   103.97   0.921
  sub94                     74.56       0.00       0.00       3.22      50.11      18.25      68.36        0.15   117.16   0.917
  sub95                     74.56       0.00       0.00       3.01      51.60      17.15      68.75        0.10    83.88   0.922
  sub96                     74.56       0.00       0.00       2.28      56.85      13.16      70.01        0.13   112.85   0.939
  sub97                     74.56       0.00       0.00       6.33      28.50      36.07      64.58        0.15   123.71   0.866
  sub98                     74.56       0.00       0.00       7.48      20.41      40.60      61.02        0.20   120.74   0.818
  sub99                     74.56       0.00       0.00       8.20      15.28      41.73      57.02        0.20    95.15   0.765
  sub100                    74.56       0.00       0.00       8.20      15.25      39.39      54.64        0.19    81.59   0.733
  sub101                    74.56       0.00       0.00       8.20      15.24      39.14      54.39        0.18    77.53   0.729
  sub102                    74.56       0.00       0.00       7.89      17.36      35.94      53.30        0.16    66.78   0.715
  sub103                    74.56       0.00       0.00       8.10      15.91      35.86      51.78        0.25    97.74   0.694
  sub104                    74.56       0.00       0.00       8.10      15.90      35.37      51.28        0.27   105.72   0.688
  sub105                    74.56       0.00       0.00       8.41      13.76      36.67      50.43        0.29   108.09   0.676
  sub106                    74.56       0.00       0.00       8.20      15.22      37.73      52.95        0.27   109.65   0.710
  sub107                    74.56       0.00       0.00       8.41      13.81      40.40      54.21        0.38   159.82   0.727
  sub108                    74.56       0.00       0.00       8.51      13.12      43.63      56.74        0.53   249.09   0.761
  sub109                    74.56       0.00       0.00       6.64      26.13      35.03      61.15        0.87   503.54   0.820
  sub110                    74.56       0.00       0.00       1.87      58.97      10.54      69.51        1.46  1073.71   0.932
  sub111                    74.56       0.00       0.00       2.70      53.31      15.06      68.37        0.59   425.72   0.917
  sub112                    74.56       0.00       0.00       2.18      56.92      12.28      69.20        0.55   406.49   0.928
  sub113                    74.56       0.00       0.00       1.45      61.93       8.28      70.20        0.49   365.28   0.942
  sub114                    74.56       0.00       0.00       1.35      62.66       7.70      70.36        0.47   352.28   0.944
  sub115                    74.56       0.00       0.00       1.25      63.33       7.11      70.44        0.52   389.09   0.945
  sub116                    74.56       0.00       0.00       4.15      43.19      22.31      65.50        0.12    79.32   0.879
  sub117                    74.56       0.00       0.00       4.26      42.58      23.12      65.70        0.30   202.61   0.881
  
  
  ******************
  Node Depth Summary
  ******************
  
  ---------------------------------------------------------------------------------
                                 Average  Maximum  Maximum  Time of Max    Reported
                                   Depth    Depth      HGL   Occurrence   Max Depth
  Node                 Type       Meters   Meters   Meters  days hr:min      Meters
  ---------------------------------------------------------------------------------
  WS02001211           JUNCTION     0.98     2.48     7.32     0  00:49        1.82
  WS02001212           JUNCTION     0.74     2.15     7.21     0  00:49        1.55
  WS02001213           JUNCTION     0.98     2.39     7.15     0  00:49        1.85
  WS02003069           JUNCTION     0.93     1.69     6.28     0  00:48        1.68
  WS02003072           JUNCTION     0.99     1.59     5.96     0  00:52        1.58
  WS02003073           JUNCTION     1.22     1.71     5.77     0  00:52        1.70
  WS02003076           JUNCTION     0.96     1.36     5.58     0  00:52        1.36
  WS02003060           JUNCTION     0.81     1.82     6.75     0  00:48        1.67
  WS02003066           JUNCTION     0.49     1.17     6.72     0  00:52        1.16
  WS02003059           JUNCTION     1.05     2.10     6.79     0  00:49        1.92
  WS02003115           JUNCTION     1.93     2.76     9.62     0  00:37        2.73
  WS02003116           JUNCTION     2.07     3.03     9.74     0  00:28        2.93
  WS02003118           JUNCTION     2.06     2.90     9.52     0  00:27        2.90
  WS02003215           JUNCTION     1.95     2.80     9.66     0  00:37        2.80
  WS02003110           JUNCTION     1.58     2.30     9.56     0  00:51        2.30
  WS02003111           JUNCTION     1.70     2.35     9.44     0  00:37        2.35
  WS02005155           JUNCTION     1.55     2.36     9.67     0  00:51        2.35
  WS02005154           JUNCTION     1.32     2.18     9.82     0  00:51        2.18
  WS02005193           JUNCTION     1.40     3.22    11.04     0  00:47        2.96
  WS02005196           JUNCTION     1.37     3.31    11.16     0  00:47        2.93
  WS02003067           JUNCTION     0.81     1.48     6.80     0  00:52        1.48
  WS02004401           JUNCTION     1.43     2.51     8.51     0  00:50        2.45
  WS02004402           JUNCTION     1.42     2.52     8.48     0  00:50        2.46
  WS02004403           JUNCTION     1.41     2.51     8.44     0  00:50        2.46
  WS02004404           JUNCTION     1.46     2.57     8.42     0  00:50        2.52
  WS02004406           JUNCTION     1.40     2.52     8.35     0  00:51        2.49
  WS02004409           JUNCTION     1.16     2.32     8.09     0  00:51        2.31
  WS02004410           JUNCTION     1.07     2.11     7.83     0  00:51        2.09
  WS02004411           JUNCTION     0.99     1.89     7.57     0  00:52        1.88
  WS02004412           JUNCTION     0.90     1.65     7.29     0  00:52        1.63
  WS02004413           JUNCTION     0.95     1.56     7.03     0  00:52        1.55
  WS02004405           JUNCTION     1.43     2.55     8.40     0  00:50        2.52
  WS02006109           JUNCTION     1.88     2.64     9.26     0  00:45        2.64
  WS02006110           JUNCTION     1.69     2.49     9.07     0  00:50        2.48
  WS02006111           JUNCTION     1.11     2.00     8.70     0  00:56        1.99
  WS02006112           JUNCTION     1.72     2.68     8.56     0  00:00        2.68
  WS02006113           JUNCTION     1.18     2.00     8.89     0  00:50        1.99
  WS02006115           JUNCTION     1.39     2.41     8.55     0  00:50        2.38
  WS02006116           JUNCTION     1.44     2.49     8.53     0  00:50        2.46
  WS02006230           JUNCTION     1.95     2.65     9.39     0  00:42        2.65
  WS02006231           JUNCTION     1.56     2.19     9.31     0  00:54        2.19
  WS02006232           JUNCTION     1.60     2.18     9.22     0  00:42        2.18
  WS02006234           JUNCTION     1.44     1.96     9.12     0  00:40        1.96
  WS02006235           JUNCTION     1.43     1.93     9.10     0  01:26        1.93
  WS02006238           JUNCTION     1.44     1.93     9.08     0  01:01        1.93
  WS02006240           JUNCTION     1.23     1.63     8.92     0  00:43        1.62
  WS02006242           JUNCTION     1.22     1.55     8.82     0  00:36        1.55
  WS02006243           JUNCTION     1.06     1.37     8.79     0  01:19        1.36
  WS02006245           JUNCTION     0.99     1.27     8.76     0  00:36        1.27
  WS02006247           JUNCTION     0.98     1.23     8.73     0  00:36        1.23
  WS02006248           JUNCTION     0.89     1.10     8.69     0  00:34        1.10
  WS02006249           JUNCTION     0.89     1.09     8.69     0  00:31        1.09
  WS02006239           JUNCTION     1.34     1.79     9.00     0  00:58        1.78
  WS02006251           JUNCTION     1.32     2.21     9.88     0  00:47        2.16
  WS02006252           JUNCTION     0.93     1.50     9.74     0  00:47        1.50
  WS02006253           JUNCTION     1.56     3.23    10.87     0  00:47        3.13
  WS02006256           JUNCTION     1.82     2.35     9.28     0  00:18        2.35
  WS02004138           JUNCTION     0.12     0.14     7.39     0  00:33        0.14
  WS02004139           JUNCTION     0.91     2.44     7.35     0  00:49        1.75
  WS02004407           JUNCTION     0.81     2.03     8.34     0  00:50        1.98
  WS02006228           JUNCTION     2.08     3.03     9.68     0  00:48        3.02
  WS02006229           JUNCTION     2.18     3.23     9.92     0  00:48        3.22
  WS02006280           JUNCTION     0.92     1.75    10.02     0  00:51        1.74
  WS02006284           JUNCTION     1.09     1.95    10.35     0  00:50        1.94
  WS02006287           JUNCTION     0.84     1.74    10.70     0  00:50        1.73
  WS02003091           JUNCTION     2.78     4.43    10.23     0  00:00        3.91
  WS02003203           JUNCTION     2.72     3.83     9.82     0  00:41        3.83
  WS6145               JUNCTION     0.40     2.34    10.44     0  00:51        2.29
  WS6147               JUNCTION     0.33     2.26    10.54     0  00:51        2.15
  WS6150               JUNCTION     0.33     2.24    10.57     0  00:51        2.12
  WS6152               JUNCTION     0.34     2.20    10.54     0  00:51        2.13
  WS6155               JUNCTION     0.30     2.10    10.50     0  00:51        2.09
  WS6156               JUNCTION     0.28     2.05    10.52     0  00:51        2.05
  WS6136               JUNCTION     0.35     1.90    10.85     0  00:51        1.90
  WS6140               JUNCTION     0.44     2.46    10.40     0  00:52        2.44
  WS6142               JUNCTION     0.40     2.34    10.41     0  00:52        2.30
  WS6325               JUNCTION     0.66     2.74    10.39     0  00:52        2.73
  WS6327               JUNCTION     0.51     2.58    10.39     0  00:55        2.57
  WS6329               JUNCTION     0.47     2.52    10.40     0  00:52        2.50
  WS6332               JUNCTION     0.41     2.51    10.55     0  00:50        2.35
  WS6158               JUNCTION     0.26     2.05    10.59     0  00:51        2.05
  WS6335               JUNCTION     0.40     2.59    10.66     0  00:50        2.32
  WS6338               JUNCTION     0.35     2.55    10.75     0  00:50        2.20
  WS6340               JUNCTION     0.31     2.50    10.84     0  00:50        2.07
  WS6342               JUNCTION     0.24     2.50    11.10     0  00:50        1.80
  WS6135               JUNCTION     0.81     2.89    10.39     0  00:52        2.88
  WS6396               JUNCTION     0.51     2.02     9.57     0  00:52        2.01
  WS6399               JUNCTION     0.32     1.37     8.80     0  00:52        1.36
  WS02003082           JUNCTION     1.34     1.93     7.00     0  00:52        1.92
  WS02003077           JUNCTION     0.46     0.85     5.85     0  00:52        0.84
  WS02003080           JUNCTION     0.88     1.30     6.24     0  00:52        1.29
  WS02003083           JUNCTION     1.72     2.41     7.44     0  00:52        2.40
  WS02003084           JUNCTION     1.86     2.60     7.70     0  00:52        2.59
  WS02003085           JUNCTION     1.93     2.72     7.89     0  00:59        2.71
  WS02003086           JUNCTION     2.17     3.02     8.22     0  00:52        3.01
  WS02003087           JUNCTION     2.43     3.36     8.57     0  00:55        3.34
  WS02003088           JUNCTION     2.62     4.14     9.43     0  00:00        4.07
  WS02003089           JUNCTION     2.74     4.34     9.80     0  00:00        4.02
  WS02003090           JUNCTION     2.95     4.43     9.86     0  00:00        4.05
  WS02003081           JUNCTION     1.10     1.61     6.66     0  00:53        1.60
  WS02003122           JUNCTION     2.24     3.11     9.48     0  00:48        3.10
  WS02003187           JUNCTION     2.27     3.11     9.44     0  00:27        3.11
  WS02003188           JUNCTION     2.25     2.97     9.23     0  00:47        2.97
  WS02003190           JUNCTION     2.24     2.84     9.04     0  00:34        2.84
  WS02003193           JUNCTION     2.22     2.85     9.09     0  00:26        2.85
  WS02003195           JUNCTION     2.24     2.93     9.18     0  00:34        2.93
  WS02003196           JUNCTION     2.35     3.12     9.30     0  00:50        3.11
  WS02003198           JUNCTION     2.38     3.20     9.39     0  00:50        3.20
  WS02003200           JUNCTION     2.14     2.99     9.42     0  00:34        2.93
  WS02003201           JUNCTION     2.40     3.22     9.36     0  00:34        3.22
  WS02003202           JUNCTION     2.54     4.17    10.23     0  00:00        3.48
  WS02004041           JUNCTION     0.63     0.98     5.34     0  00:52        0.98
  WSA6400              JUNCTION     1.10     2.46     8.30     0  00:51        2.41
  WS6400               JUNCTION     0.47     1.73     8.39     0  00:51        1.68
  WSF208               JUNCTION     0.80     1.98     8.07     0  00:51        1.93
  WSF207               JUNCTION     0.69     1.72     7.85     0  00:51        1.68
  WSF206               JUNCTION     0.78     1.76     7.69     0  00:51        1.73
  WSF205               JUNCTION     0.71     1.62     7.52     0  00:51        1.60
  WSF204               JUNCTION     1.23     2.17     7.32     0  00:52        2.16
  WSF203               JUNCTION     0.63     1.37     7.07     0  00:52        1.35
  WSF202               JUNCTION     0.55     1.19     6.92     0  00:52        1.18
  WSF201               JUNCTION     0.47     1.04     6.77     0  00:52        1.02
  WSF200               JUNCTION     0.62     1.45     6.69     0  00:52        1.45
  HS02004901           JUNCTION     0.69     1.42    11.24     0  00:45        1.42
  HS02004881           JUNCTION     0.53     2.15    11.18     0  00:47        1.86
  HS02004876           JUNCTION     0.65     2.12    11.15     0  00:51        2.11
  HS02004870           JUNCTION     0.56     2.10    11.39     0  00:48        2.01
  HS02004862           JUNCTION     0.56     2.00    11.38     0  00:48        2.00
  HS02004856           JUNCTION     0.59     2.07    11.50     0  00:48        2.02
  HS02004852           JUNCTION     0.54     2.12    11.63     0  00:48        1.97
  HS02004848           JUNCTION     0.52     2.06    11.66     0  00:48        1.91
  HS02004842           JUNCTION     0.82     2.22    11.49     0  00:48        2.22
  HS02004837           JUNCTION     0.54     2.00    11.58     0  00:46        1.91
  HS02004830           JUNCTION     0.61     2.03    11.50     0  00:48        1.99
  HS02004824           JUNCTION     0.65     2.01    11.41     0  00:48        2.01
  HS02004817           JUNCTION     1.13     2.44    11.29     0  00:48        2.41
  HS02004807           JUNCTION     0.81     1.92    11.09     0  00:48        1.92
  HS02004802           JUNCTION     0.82     1.80    10.93     0  00:50        1.80
  HS02004799           JUNCTION     0.91     1.76    10.97     0  00:46        1.76
  HS02004792           JUNCTION     0.72     1.60    11.12     0  00:43        1.60
  HS02004788           JUNCTION     0.54     1.42    11.32     0  00:46        1.36
  HS02004785           JUNCTION     0.58     1.49    11.39     0  00:45        1.36
  HS02004777           JUNCTION     0.71     1.48    11.28     0  00:45        1.46
  HS02004770           JUNCTION     0.69     1.42    11.25     0  00:45        1.42
  HS02004480           JUNCTION     0.82     1.67    10.91     0  00:48        1.63
  HS02004479           JUNCTION     0.85     1.69    10.90     0  00:48        1.67
  HS02004478           JUNCTION     0.71     1.59    10.82     0  00:50        1.58
  HS02004053           JUNCTION     0.28     1.90    10.67     0  00:50        1.70
  HS02004052           JUNCTION     0.35     1.50    11.15     0  00:49        1.39
  HS02004049           JUNCTION     0.20     1.05    11.73     0  00:50        0.86
  HS02004048           JUNCTION     0.47     1.70    12.60     0  00:49        1.70
  HS02004046           JUNCTION     0.44     1.80    13.52     0  00:49        1.60
  HS02004043           JUNCTION     0.22     2.17    14.86     0  00:49        1.57
  HS02004041           JUNCTION     0.13     0.39    15.84     0  00:52        0.39
  HS02004038           JUNCTION     0.13     0.35    19.03     0  00:52        0.35
  HS02004036           JUNCTION     0.00     0.00    22.46     0  00:00        0.00
  HS02004034           JUNCTION     0.00     0.00    26.83     0  00:00        0.00
  HS02004028           JUNCTION     0.19     0.51    37.36     0  00:49        0.51
  HS02004027           JUNCTION     0.15     0.34    36.47     0  00:49        0.33
  HS02004026           JUNCTION     0.15     0.35    35.75     0  00:49        0.34
  HS02004024           JUNCTION     0.16     0.42    34.63     0  00:49        0.41
  HS02004022           JUNCTION     0.22     0.80    33.84     0  00:48        0.80
  HS02004021           JUNCTION     0.26     0.81    32.54     0  00:47        0.81
  HS02004019           JUNCTION     0.32     0.80    31.76     0  00:45        0.80
  HS02004018           JUNCTION     0.22     0.60    33.81     0  00:48        0.60
  HS02004017           JUNCTION     0.20     0.53    34.37     0  00:49        0.53
  HS02004013           JUNCTION     0.13     0.43    35.57     0  00:52        0.43
  HS02004010           JUNCTION     0.05     0.17    38.03     0  00:52        0.17
  HS02003174           JUNCTION     0.18     0.45     5.98     0  00:53        0.45
  HS02003171           JUNCTION     0.19     0.50     6.18     0  00:52        0.50
  HS02003170           JUNCTION     0.23     0.47     6.92     0  00:52        0.47
  HS02003168           JUNCTION     0.12     0.31     6.80     0  00:52        0.31
  HS02003166           JUNCTION     0.22     0.48     6.95     0  00:52        0.47
  HS02003162           JUNCTION     0.21     0.42    30.67     0  00:46        0.42
  HS02003160           JUNCTION     0.16     0.37    28.42     0  00:51        0.37
  HS02003150           JUNCTION     0.17     0.39    26.41     0  00:51        0.39
  HS02003148           JUNCTION     0.19     0.50    22.24     0  00:51        0.50
  HS02003145           JUNCTION     0.25     0.81    14.68     0  00:49        0.81
  HS02003143           JUNCTION     0.36     0.80    13.27     0  00:43        0.80
  HS02003138           JUNCTION     0.20     0.49     6.98     0  01:39        0.49
  HS02003136           JUNCTION     1.39     2.28    10.00     0  00:00        2.28
  HS02003125           JUNCTION     1.48     2.39     9.84     0  00:37        2.27
  HS02003122           JUNCTION     1.53     2.43     9.86     0  00:37        2.36
  HS02003119           JUNCTION     1.30     2.48    10.20     0  00:37        2.14
  HS02003116           JUNCTION     0.99     2.43    10.55     0  00:37        1.83
  HS02003111           JUNCTION     0.45     0.84     9.85     0  00:51        0.84
  HS02003108           JUNCTION     0.36     1.12    10.24     0  00:47        0.80
  HS02003100           JUNCTION     0.25     0.75     9.98     0  00:52        0.72
  HS02003088           JUNCTION     0.21     0.74    10.03     0  00:52        0.70
  HS02003084           JUNCTION     0.09     0.59    10.02     0  00:52        0.59
  HS02003079           JUNCTION     0.06     0.51    10.03     0  00:52        0.51
  HS02003077           JUNCTION     0.01     0.29    10.03     0  00:52        0.29
  HS02003065           JUNCTION     0.65     1.63    10.86     0  00:41        1.62
  HS02003056           JUNCTION     0.67     1.76    10.70     0  00:49        1.71
  HS02003053           JUNCTION     0.46     1.66    10.96     0  00:41        1.56
  HS02003042           JUNCTION     0.32     1.69    11.35     0  00:49        1.34
  HS02003039           JUNCTION     0.36     1.76    11.42     0  00:49        1.41
  HS02003036           JUNCTION     0.19     1.41    11.47     0  00:49        1.18
  HS02003028           JUNCTION     0.30     1.40    11.14     0  00:48        1.40
  HS02003021           JUNCTION     0.33     1.55    10.92     0  00:48        1.49
  HS02003018           JUNCTION     0.34     1.48    10.69     0  00:48        1.48
  HS02003017           JUNCTION     0.34     1.48    10.64     0  00:48        1.48
  HS02003013           JUNCTION     0.33     1.47    10.52     0  00:48        1.42
  HS02003010           JUNCTION     0.36     1.45    10.25     0  00:48        1.29
  HS02003007           JUNCTION     0.31     1.25     9.87     0  00:48        1.09
  HS02003004           JUNCTION     0.40     1.05     9.37     0  00:48        0.98
  HS02003001           JUNCTION     0.11     0.29     8.59     0  00:52        0.29
  YS02001738           JUNCTION     0.00     0.00     8.89     0  00:00        0.00
  YS02001739           JUNCTION     0.00     0.00     8.37     0  00:00        0.00
  YS02001742           JUNCTION     0.00     0.00     8.49     0  00:00        0.00
  YS02001745           JUNCTION     0.14     0.34     7.86     0  00:52        0.34
  YS02001748           JUNCTION     0.16     0.53     7.61     0  00:54        0.52
  YS02001751           JUNCTION     0.17     0.79     7.67     0  00:54        0.78
  YS02001754           JUNCTION     0.19     1.81     8.42     0  00:53        1.10
  YS02001762           JUNCTION     0.38     1.87     8.27     0  00:53        1.49
  YS02001765           JUNCTION     0.37     1.89     8.34     0  00:53        1.49
  YS02001767           JUNCTION     0.39     1.86     8.35     0  00:53        1.53
  YS02001770           JUNCTION     0.44     1.95     8.44     0  00:53        1.65
  YS02001774           JUNCTION     0.51     2.01     8.43     0  00:53        1.72
  YS02001779           JUNCTION     0.27     1.68     8.37     0  00:52        1.46
  YS02001882           JUNCTION     0.73     1.83     8.55     0  00:47        1.64
  YS02001884           JUNCTION     0.83     1.93     8.55     0  00:47        1.75
  YS02001759           JUNCTION     0.39     1.82     8.18     0  00:53        1.47
  YS02001887           JUNCTION     0.90     1.94     8.47     0  00:47        1.83
  YS02001890           JUNCTION     0.93     1.81     8.32     0  00:47        1.81
  YS02001898           JUNCTION     0.70     1.77     8.50     0  00:47        1.56
  YS02001901           JUNCTION     0.80     1.71     8.32     0  00:47        1.67
  YS02001904           JUNCTION     0.78     1.64     8.27     0  00:48        1.63
  YS02001907           JUNCTION     1.10     1.96     8.25     0  00:47        1.96
  YS02001910           JUNCTION     0.92     2.07     8.57     0  00:48        1.94
  YS02001915           JUNCTION     0.76     2.00     8.72     0  00:47        1.87
  YS02001918           JUNCTION     0.50     1.81     8.88     0  00:48        1.60
  YS02001920           JUNCTION     0.59     2.14     9.15     0  00:50        1.71
  YS02001923           JUNCTION     0.41     2.03     9.29     0  00:50        1.48
  YS02001926           JUNCTION     0.42     1.90     9.35     0  00:49        1.34
  YS02001929           JUNCTION     0.28     1.78     9.47     0  00:50        1.12
  YS02001932           JUNCTION     0.18     1.77     9.57     0  00:50        1.44
  YS02001935           JUNCTION     0.14     1.75     9.68     0  00:50        0.94
  YS02001757           JUNCTION     0.37     1.85     8.11     0  00:53        1.39
  YS02001895           JUNCTION     0.70     1.67     8.42     0  00:47        1.56
  YS02005679           JUNCTION     0.00     0.00    10.24     0  00:00        0.00
  YS02005559           JUNCTION     0.09     0.18    10.12     0  00:53        0.18
  YS02005651           JUNCTION     0.06     0.17    10.94     0  00:52        0.17
  YS02005670           JUNCTION     0.07     0.19    10.64     0  00:52        0.19
  YS02005547           JUNCTION     0.05     0.14    10.67     0  00:51        0.13
  YS02005549           JUNCTION     0.07     0.20    11.11     0  00:51        0.20
  YS02005550           JUNCTION     0.09     0.22    10.85     0  00:52        0.22
  YS02005551           JUNCTION     0.05     0.13    10.50     0  00:52        0.13
  YS02005553           JUNCTION     0.11     0.25    10.61     0  00:53        0.24
  YS02005554           JUNCTION     0.06     0.12    10.36     0  00:52        0.12
  YS02005556           JUNCTION     0.11     0.24    10.29     0  00:53        0.23
  YS02005557           JUNCTION     0.06     0.12    10.09     0  00:53        0.12
  YS02005560           JUNCTION     0.07     0.13     9.88     0  00:53        0.13
  YS02005562           JUNCTION     0.10     0.21     9.95     0  00:53        0.21
  YS02005563           JUNCTION     0.06     0.12     9.78     0  00:53        0.12
  YS02005565           JUNCTION     0.09     0.18     9.89     0  00:53        0.18
  YS02005566           JUNCTION     0.08     0.15     9.54     0  00:53        0.15
  YS02005568           JUNCTION     0.11     0.23     9.73     0  00:53        0.23
  YS02005569           JUNCTION     0.09     0.17     9.50     0  00:53        0.17
  YS02005598           JUNCTION     0.21     1.07    10.91     0  00:48        1.07
  YS02005600           JUNCTION     0.19     1.02    10.68     0  00:48        1.02
  YS02005602           JUNCTION     0.43     2.15    10.43     0  00:49        2.15
  YS02005603           JUNCTION     0.14     0.95     9.08     0  00:49        0.58
  YS02005609           JUNCTION     0.07     0.19     9.08     0  00:52        0.19
  YS02005653           JUNCTION     0.10     0.63    11.59     0  00:50        0.52
  YS02005654           JUNCTION     0.12     0.61    11.36     0  00:50        0.44
  YS02005655           JUNCTION     0.05     0.13    10.77     0  00:52        0.13
  YS02005595           JUNCTION     0.30     1.36    11.04     0  00:47        1.36
  YS02005658           JUNCTION     0.09     0.27    11.18     0  00:52        0.27
  YS02005659           JUNCTION     0.05     0.13    10.79     0  00:52        0.13
  YS02005661           JUNCTION     0.12     0.48    11.19     0  00:50        0.44
  YS02005662           JUNCTION     0.05     0.12    10.74     0  00:52        0.12
  YS02005664           JUNCTION     0.12     0.44    11.02     0  00:50        0.42
  YS02005665           JUNCTION     0.04     0.11    10.67     0  00:52        0.11
  YS02005668           JUNCTION     0.05     0.13    10.29     0  00:52        0.13
  YS02005667           JUNCTION     0.27     0.70    10.71     0  00:51        0.69
  YS02005571           JUNCTION     0.13     0.26     9.74     0  00:53        0.26
  YS02005572           JUNCTION     0.10     0.19     9.54     0  00:53        0.19
  YS02005576           JUNCTION     0.10     0.20     9.96     0  00:53        0.20
  YS02005577           JUNCTION     0.09     0.18     9.66     0  00:53        0.18
  YS02005579           JUNCTION     0.19     0.54    10.17     0  00:53        0.54
  YS02005580           JUNCTION     0.11     0.25     9.78     0  00:53        0.25
  YS02005582           JUNCTION     0.28     0.86    10.94     0  00:50        0.86
  YS02005583           JUNCTION     0.14     0.84    10.83     0  00:50        0.41
  YS02005612           JUNCTION     0.39     1.28     9.41     0  00:52        1.28
  YS02005615           JUNCTION     0.05     0.13    11.62     0  00:51        0.13
  YS02005616           JUNCTION     0.04     0.11    10.93     0  00:51        0.11
  YS02005618           JUNCTION     0.07     0.21    11.06     0  00:51        0.20
  YS02005619           JUNCTION     0.05     0.12    10.67     0  00:51        0.12
  YS02005621           JUNCTION     0.08     0.25    11.36     0  00:51        0.25
  YS02005622           JUNCTION     0.04     0.10    11.07     0  00:51        0.10
  YS02005625           JUNCTION     0.03     0.09    11.11     0  00:51        0.09
  YS02005627           JUNCTION     0.10     0.26    11.19     0  00:51        0.26
  YS02005628           JUNCTION     0.04     0.10    11.00     0  00:51        0.10
  YS02005630           JUNCTION     0.09     0.27    11.35     0  00:52        0.27
  YS02005631           JUNCTION     0.04     0.12    10.99     0  00:52        0.12
  YS02005633           JUNCTION     0.08     0.24    11.37     0  00:52        0.24
  YS02005634           JUNCTION     0.05     0.13    10.96     0  00:52        0.13
  YS02005636           JUNCTION     0.10     0.29    11.28     0  00:52        0.29
  YS02005637           JUNCTION     0.06     0.14    10.91     0  00:52        0.14
  YS02005639           JUNCTION     0.09     0.24    10.87     0  00:52        0.24
  YS02005640           JUNCTION     0.06     0.14    10.47     0  00:52        0.14
  YS02005642           JUNCTION     0.07     0.19    11.02     0  00:52        0.19
  YS02005644           JUNCTION     0.12     0.66    11.77     0  00:52        0.65
  YS02005645           JUNCTION     0.07     0.20    11.01     0  00:52        0.20
  YS02005647           JUNCTION     0.20     1.03    11.92     0  00:51        1.03
  YS02005648           JUNCTION     0.08     0.23    11.02     0  00:51        0.23
  YS02005650           JUNCTION     0.12     0.52    11.40     0  00:52        0.51
  YS02005671           JUNCTION     0.04     0.09    10.32     0  00:52        0.09
  YS02005673           JUNCTION     0.07     0.20    10.55     0  00:52        0.20
  YS02005674           JUNCTION     0.05     0.13    10.02     0  00:52        0.13
  YS02005676           JUNCTION     0.00     0.00    10.24     0  00:00        0.00
  YS02005680           JUNCTION     0.05     0.13    10.23     0  00:52        0.13
  YS02005682           JUNCTION     0.00     0.00    10.06     0  00:00        0.00
  YS02005683           JUNCTION     0.03     0.08     9.97     0  00:52        0.08
  YS02005376           JUNCTION     0.73     1.01    11.10     0  00:33        1.01
  YS02005378           JUNCTION     1.25     1.62    11.14     0  01:03        1.62
  YS02005381           JUNCTION     1.13     1.57    11.20     0  00:33        1.57
  YS02005624           JUNCTION     0.21     0.42    11.30     0  00:51        0.42
  YS02005384           JUNCTION     0.36     0.78    10.43     0  00:33        0.53
  YS02005677           JUNCTION     0.05     0.14    10.22     0  00:52        0.14
  YSB1105              JUNCTION     0.25     0.54    10.02     0  00:51        0.53
  YSB1106              JUNCTION     0.24     1.82    11.65     0  00:51        0.71
  YSB1109              JUNCTION     0.30     1.76    11.70     0  00:51        0.99
  YSB1112              JUNCTION     0.30     1.80    11.93     0  00:50        1.19
  YSB1115              JUNCTION     0.28     1.90    12.20     0  00:50        1.20
  YSB1118              JUNCTION     0.29     1.80    12.34     0  00:50        1.39
  YSB1121              JUNCTION     0.35     1.70    12.37     0  00:50        1.70
  YSB1124              JUNCTION     0.22     1.60    12.43     0  00:50        1.55
  YSB1128              JUNCTION     0.42     1.85    12.43     0  00:46        1.85
  YSB1132              JUNCTION     0.46     1.90    12.35     0  00:46        1.90
  YSB1228              JUNCTION     0.05     0.15    10.99     0  00:51        0.15
  YSB1202              JUNCTION     0.88     1.50    12.39     0  00:44        1.46
  YSB1135              JUNCTION     0.58     2.00    12.26     0  00:46        1.98
  YSB1138              JUNCTION     0.67     1.90    12.07     0  00:46        1.90
  YSB1141              JUNCTION     0.70     2.00    11.83     0  00:46        1.99
  YSB1145              JUNCTION     0.71     2.00    11.69     0  00:46        1.98
  YSB1148              JUNCTION     0.78     2.00    11.50     0  00:46        2.00
  YSB1151              JUNCTION     0.96     2.08    11.31     0  00:46        2.08
  YSB1154              JUNCTION     1.10     2.10    11.16     0  00:46        2.10
  YSB1198              JUNCTION     0.18     1.60    12.39     0  00:47        1.18
  YSB1192              JUNCTION     0.36     1.90    12.17     0  00:47        1.70
  YSB6556              JUNCTION     0.94     1.80    10.97     0  00:46        1.80
  YSB1205              JUNCTION     1.05     1.65    12.35     0  00:44        1.65
  YSB1209              JUNCTION     1.02     1.65    12.22     0  00:44        1.65
  YSB1212              JUNCTION     0.92     1.60    12.13     0  00:44        1.60
  YSB1215              JUNCTION     0.92     1.70    12.05     0  00:44        1.69
  YSB1218              JUNCTION     0.91     1.75    11.94     0  00:44        1.75
  YSB1221              JUNCTION     0.86     1.77    11.74     0  00:44        1.58
  YSB1224              JUNCTION     0.76     1.33    11.18     0  00:58        1.33
  YSB1195              JUNCTION     0.32     1.90    12.28     0  00:47        1.59
  YSB1189              JUNCTION     0.46     1.80    11.96     0  00:47        1.80
  YSB1186              JUNCTION     0.52     1.93    11.80     0  00:47        1.74
  YSB1183              JUNCTION     0.65     2.05    11.64     0  00:47        1.88
  YSB1180              JUNCTION     0.68     1.95    11.46     0  00:47        1.83
  YSB1177              JUNCTION     0.93     2.05    11.24     0  00:47        2.01
  YSB1174              JUNCTION     0.99     1.95    11.06     0  00:49        1.95
  YSB1171              JUNCTION     1.16     1.95    10.85     0  00:46        1.95
  YS02006553           JUNCTION     1.09     2.03     8.31     0  00:48        2.00
  YS02006561           JUNCTION     0.38     1.27     7.93     0  00:48        1.03
  YS02006562           JUNCTION     0.87     1.93     8.44     0  00:48        1.85
  YS02006556           JUNCTION     1.06     2.08     8.39     0  00:48        2.02
  YS02006558           JUNCTION     1.10     2.15     8.42     0  00:48        2.08
  YS6132               JUNCTION     0.53     3.04    10.36     0  00:59        1.56
  YS6137               JUNCTION     0.27     1.92     9.72     0  00:53        1.30
  YS6189               JUNCTION     0.36     2.03     9.82     0  00:53        1.55
  YS6184               JUNCTION     0.36     2.12    10.01     0  00:53        1.86
  YS6179               JUNCTION     0.30     2.08    10.06     0  00:53        1.95
  YS6176               JUNCTION     0.22     1.88    10.08     0  00:53        1.83
  YS6171               JUNCTION     0.23     2.10    10.51     0  00:52        1.89
  YS6168               JUNCTION     0.25     2.00    10.51     0  00:52        2.00
  YS6164               JUNCTION     0.08     1.90    10.63     0  00:52        1.90
  YS6162               JUNCTION     0.13     2.10    10.75     0  00:52        1.97
  YS6187               JUNCTION     0.41     2.09     9.87     0  00:53        1.66
  YS6363               JUNCTION     0.31     2.52    10.31     0  00:51        1.20
  YS6360               JUNCTION     0.43     2.54    10.34     0  00:51        1.40
  YS6354               JUNCTION     0.41     2.46    10.61     0  00:51        1.79
  YS6351               JUNCTION     0.49     2.50    10.71     0  00:53        2.12
  YS6350               JUNCTION     0.55     2.50    10.72     0  00:51        2.32
  YS6348               JUNCTION     0.51     2.45    10.85     0  00:50        2.45
  YS6344               JUNCTION     0.33     2.27    10.86     0  00:55        2.26
  YS6375               JUNCTION     0.08     0.30     8.72     0  00:52        0.30
  YS6377               JUNCTION     0.14     0.36     8.72     0  00:52        0.36
  YS6381               JUNCTION     0.16     0.41     8.54     0  00:52        0.41
  YS6386               JUNCTION     0.19     0.49     8.47     0  00:52        0.49
  YS6390               JUNCTION     0.40     0.62     8.31     0  00:53        0.62
  YS6394               JUNCTION     0.10     0.25     8.17     0  00:53        0.25
  YS6404               JUNCTION     0.50     3.00    10.23     0  00:51        1.43
  YS6401               JUNCTION     0.16     0.41     7.63     0  00:53        0.40
  YS02004319           JUNCTION     0.30     1.18    20.80     0  00:46        1.18
  YS02004320           JUNCTION     0.00     0.00    22.64     0  01:03        0.00
  YS02004321           JUNCTION     0.00     0.00    26.80     0  00:57        0.00
  YS02004307           JUNCTION     0.15     0.52    11.05     0  00:52        0.52
  YS02004309           JUNCTION     0.71     1.55    13.07     0  00:38        1.55
  YS02004312           JUNCTION     0.47     1.48    14.91     0  00:44        1.48
  YS02004314           JUNCTION     0.35     1.28    16.99     0  00:46        1.28
  YS02004316           JUNCTION     0.35     1.36    19.13     0  00:46        1.36
  YS02001783           JUNCTION     0.60     1.54     7.68     0  00:48        1.36
  YS02001784           JUNCTION     0.58     1.29     7.35     0  00:48        1.23
  YS02001786           JUNCTION     0.47     1.05     7.08     0  00:48        0.93
  YS02001788           JUNCTION     0.34     0.62     6.60     0  00:51        0.62
  YS02001790           JUNCTION     0.40     0.72     6.37     0  00:51        0.71
  YS02001791           JUNCTION     0.24     0.44     5.91     0  00:56        0.43
  YS02001793           JUNCTION     0.13     0.29     5.12     0  00:51        0.28
  YS02003309           JUNCTION     0.59     1.21     9.77     0  00:32        1.21
  YS02003306           JUNCTION     0.70     1.16     9.60     0  00:32        1.16
  YS02003269           JUNCTION     0.13     0.17     7.76     0  00:47        0.17
  YS02003272           JUNCTION     0.37     0.81     8.54     0  00:33        0.58
  YS02003278           JUNCTION     0.72     1.21     9.13     0  01:00        1.21
  YS02003281           JUNCTION     0.80     1.39     9.47     0  00:46        1.39
  YS02003284           JUNCTION     0.88     1.40     9.41     0  00:46        1.40
  YS02003287           JUNCTION     0.83     1.27     9.34     0  00:33        1.27
  YS02003290           JUNCTION     0.70     1.11     9.40     0  00:33        1.10
  YS02003294           JUNCTION     0.85     1.24     9.42     0  00:33        1.24
  YS02003275           JUNCTION     0.54     0.92     8.83     0  00:56        0.91
  YS02003297           JUNCTION     0.83     1.22     9.43     0  00:34        1.22
  YS02003300           JUNCTION     0.77     1.15     9.42     0  00:33        1.15
  YS02003303           JUNCTION     0.76     1.14     9.46     0  00:33        1.14
  YSB1227              JUNCTION     0.01     0.09    10.99     0  00:51        0.09
  CaochengRainPumpOutfall1 OUTFALL      0.00     0.00     6.00     0  00:00        0.00
  JiankangRainPumpOutfall2 OUTFALL      0.00     0.00     6.00     0  00:00        0.00
  JiankangRainPumpOutfall1 OUTFALL      0.00     0.00     6.00     0  00:00        0.00
  CaochengRainPumpOutfall2 OUTFALL      0.00     0.00     6.00     0  00:00        0.00
  YS02005684           OUTFALL      0.03     0.08     8.48     0  00:52        0.08
  YS02005681           OUTFALL      0.05     0.13     9.35     0  00:52        0.13
  YS02005678           OUTFALL      0.05     0.14     8.67     0  00:52        0.14
  YS02005675           OUTFALL      0.05     0.13     8.67     0  00:52        0.13
  YS02005672           OUTFALL      0.04     0.09     8.43     0  00:52        0.09
  YS02005669           OUTFALL      0.05     0.13     8.84     0  00:52        0.13
  YS02005666           OUTFALL      0.04     0.11     8.79     0  00:52        0.11
  YS02005663           OUTFALL      0.05     0.12     8.85     0  00:52        0.12
  YS02005660           OUTFALL      0.05     0.13     8.95     0  00:52        0.13
  YS02005657           OUTFALL      0.00     0.00     8.74     0  00:00        0.00
  YS02005652           OUTFALL      0.06     0.17     8.79     0  00:52        0.17
  YS02005649           OUTFALL      0.08     0.23     8.93     0  00:51        0.23
  YS02005646           OUTFALL      0.07     0.20     8.20     0  00:52        0.20
  YS02005643           OUTFALL      0.07     0.19     8.75     0  00:52        0.19
  YS02005641           OUTFALL      0.05     0.14     8.84     0  00:52        0.14
  YS02005638           OUTFALL      0.05     0.14     8.80     0  00:52        0.14
  YS02005635           OUTFALL      0.05     0.13     8.79     0  00:52        0.13
  YS02005632           OUTFALL      0.04     0.11     8.67     0  00:52        0.11
  YS02005629           OUTFALL      0.04     0.10     8.58     0  00:51        0.10
  YS02005626           OUTFALL      0.03     0.09     8.61     0  00:51        0.09
  YS02005623           OUTFALL      0.04     0.10     8.58     0  00:51        0.10
  YS02005620           OUTFALL      0.05     0.12     8.92     0  00:51        0.12
  YS02005617           OUTFALL      0.04     0.11     8.95     0  00:51        0.11
  YSB1103              OUTFALL      0.26     0.60     8.60     0  00:51        0.60
  YSB1229              OUTFALL      0.05     0.15     8.95     0  00:51        0.14
  YS02005548           OUTFALL      0.05     0.14     9.13     0  00:51        0.13
  YS02005552           OUTFALL      0.05     0.13     8.75     0  00:52        0.13
  YS02005555           OUTFALL      0.06     0.12     8.85     0  00:53        0.12
  YS02005558           OUTFALL      0.06     0.12     8.82     0  00:53        0.12
  YS02005561           OUTFALL      0.07     0.13     8.81     0  00:53        0.13
  YS02005564           OUTFALL      0.06     0.12     8.60     0  00:53        0.12
  YS02005567           OUTFALL      0.08     0.15     8.69     0  00:53        0.15
  YS02005570           OUTFALL      0.09     0.17     8.89     0  00:53        0.17
  YS02005574           OUTFALL      0.10     0.19     9.03     0  00:53        0.19
  YS02005578           OUTFALL      0.09     0.18     8.96     0  00:53        0.18
  WS02005134           OUTFALL      0.00     0.00     8.74     0  00:00        0.00
  YS02005581           OUTFALL      0.12     0.28     9.08     0  00:53        0.28
  YS02005584           OUTFALL      0.13     0.30     9.26     0  00:50        0.30
  YS02005593           OUTFALL      0.23     0.28     9.00     0  00:58        0.28
  YS02005596           OUTFALL      0.14     0.30     8.84     0  00:47        0.30
  YS02005374           OUTFALL      0.12     0.30     8.54     0  00:48        0.30
  YS02005375           OUTFALL      0.12     0.30     8.69     0  00:48        0.30
  YS02005607           OUTFALL      0.12     0.30     7.53     0  00:48        0.30
  YS02005610           OUTFALL      0.07     0.19     8.80     0  00:52        0.19
  YS02005613           OUTFALL      0.13     0.30     8.58     0  00:50        0.30
  HS02003172           OUTFALL      0.18     0.45     5.90     0  00:53        0.45
  YS6395               OUTFALL      0.10     0.25     6.67     0  00:53        0.25
  YS6405               OUTFALL      0.16     0.40     3.85     0  00:53        0.40
  WSC                  OUTFALL      0.59     0.80     5.00     0  00:41        0.80
  JiankangQianchi      STORAGE      3.01     4.22     5.02     0  01:13        4.21
  CaochengTiaoxuchi    STORAGE      0.94     1.31     6.81     0  01:07        1.31
  XierchiQianchi       STORAGE      7.03     7.47     5.47     0  02:02        7.47
  
  
  *******************
  Node Inflow Summary
  *******************
  
  -------------------------------------------------------------------------------------------------
                                  Maximum  Maximum                  Lateral       Total        Flow
                                  Lateral    Total  Time of Max      Inflow      Inflow     Balance
                                   Inflow   Inflow   Occurrence      Volume      Volume       Error
  Node                 Type           LPS      LPS  days hr:min    10^6 ltr    10^6 ltr     Percent
  -------------------------------------------------------------------------------------------------
  WS02001211           JUNCTION      7.35   219.98     0  00:48       0.054        1.19       4.103
  WS02001212           JUNCTION      0.00   235.21     0  00:48           0        1.14       2.304
  WS02001213           JUNCTION      0.00   246.18     0  01:23           0        1.12       3.167
  WS02003069           JUNCTION      0.32  2519.89     0  00:52     0.00235        10.1       0.668
  WS02003072           JUNCTION      0.00  2520.07     0  00:52           0        10.1       0.583
  WS02003073           JUNCTION      1.82  3088.04     0  00:52      0.0134        13.4       0.285
  WS02003076           JUNCTION      0.00  3087.96     0  00:52           0        13.3       0.305
  WS02003060           JUNCTION     16.53  2520.04     0  00:52       0.122        10.2       0.541
  WS02003066           JUNCTION      0.00  2314.43     0  00:52           0        9.06       0.108
  WS02003059           JUNCTION      0.00   257.58     0  00:48           0         1.1       5.184
  WS02003115           JUNCTION      0.00   477.10     0  01:04           0        1.04       0.501
  WS02003116           JUNCTION      0.00   265.23     0  00:28           0        1.06       0.776
  WS02003118           JUNCTION      0.10   221.17     0  00:35       3e-06        1.05       1.421
  WS02003215           JUNCTION      0.17  1984.49     0  00:52    2.56e-05        2.65       1.020
  WS02003110           JUNCTION      0.18   389.74     0  00:52     0.00132       0.523       1.416
  WS02003111           JUNCTION      1.49   868.16     0  00:52      0.0107        1.48       0.482
  WS02005155           JUNCTION      0.38   389.46     0  00:52      0.0028       0.522       1.895
  WS02005154           JUNCTION    389.09   389.09     0  00:52       0.518       0.519       1.135
  WS02005193           JUNCTION      0.00   149.80     0  00:31           0      0.0152     138.040
  WS02005196           JUNCTION      0.00    97.00     0  00:32           0     0.00571     684.409
  WS02003067           JUNCTION      0.00  1870.37     0  00:51           0        7.16       0.199
  WS02004401           JUNCTION      0.00  1108.25     0  01:32           0        5.63       0.556
  WS02004402           JUNCTION      0.00  1108.46     0  01:32           0         5.6       0.502
  WS02004403           JUNCTION      0.00  1108.31     0  01:32           0        5.58       0.434
  WS02004404           JUNCTION      0.16  1109.24     0  01:32     0.00119        5.56       0.298
  WS02004406           JUNCTION      0.00  1108.79     0  01:32           0        5.53       0.742
  WS02004409           JUNCTION      0.00  1826.93     0  00:50           0        7.87       0.441
  WS02004410           JUNCTION      0.00  1870.76     0  00:51           0        7.92       0.447
  WS02004411           JUNCTION      0.00  1870.24     0  00:51           0        7.27       0.469
  WS02004412           JUNCTION      0.00  1870.36     0  00:51           0        7.24       0.469
  WS02004413           JUNCTION      0.00  1870.38     0  00:51           0         7.2       0.606
  WS02004405           JUNCTION      0.17  1109.20     0  01:32    0.000402        5.55       0.438
  WS02006109           JUNCTION      1.93  1308.01     0  00:00     0.00967        6.39       0.348
  WS02006110           JUNCTION      0.30  1107.85     0  01:32    0.000192        5.76      -0.340
  WS02006111           JUNCTION      0.04  1176.04     0  00:00    6.66e-06        5.75      -0.313
  WS02006112           JUNCTION      0.48  2307.30     0  00:00    2.35e-05        5.77       0.307
  WS02006113           JUNCTION      0.03  1107.92     0  01:32    2.04e-06        5.74      -0.405
  WS02006115           JUNCTION      0.00  2155.86     0  00:00           0        5.67       0.578
  WS02006116           JUNCTION      0.31  1108.19     0  01:32    0.000348        5.65       0.466
  WS02006230           JUNCTION     10.41  1027.67     0  00:50      0.0756        3.22       0.505
  WS02006231           JUNCTION      0.51   453.35     0  00:51     0.00128        1.92       0.866
  WS02006232           JUNCTION      0.20   453.40     0  00:51    7.23e-05        1.94       0.926
  WS02006234           JUNCTION      0.14   453.28     0  00:51    4.36e-06        1.95       0.631
  WS02006235           JUNCTION      0.27   415.07     0  01:02    0.000476        2.03       0.539
  WS02006238           JUNCTION      0.00   415.37     0  01:28           0        2.01       0.376
  WS02006240           JUNCTION      0.00   414.91     0  01:02           0        2.04       0.808
  WS02006242           JUNCTION      0.27   415.01     0  00:55    0.000116        2.06       0.960
  WS02006243           JUNCTION      0.62   278.17     0  01:44     0.00121        1.56       1.037
  WS02006245           JUNCTION      0.00   283.04     0  00:29           0        1.58       0.850
  WS02006247           JUNCTION      0.00   294.91     0  00:30           0        1.59       0.754
  WS02006248           JUNCTION      0.00   345.18     0  00:40           0        1.93       0.574
  WS02006249           JUNCTION      0.00  1379.14     0  00:52           0        5.47       0.310
  WS02006239           JUNCTION      0.00   415.09     0  01:02           0        2.03       0.626
  WS02006251           JUNCTION      0.08  1708.42     0  00:52    0.000566        5.69       0.324
  WS02006252           JUNCTION      0.00   727.03     0  00:53           0        2.36       0.021
  WS02006253           JUNCTION     44.99  1708.40     0  00:52      0.0577        4.07       0.508
  WS02006256           JUNCTION      0.00   300.00     0  00:36           0        1.56       0.066
  WS02004138           JUNCTION      0.00   190.00     0  00:29           0        1.17       0.255
  WS02004139           JUNCTION      0.32   190.32     0  00:33     0.00236        1.17       3.387
  WS02004407           JUNCTION      0.06  1826.67     0  00:50    6.31e-05        7.92       0.331
  WS02006228           JUNCTION      1.17  1289.47     0  00:50     0.00081        6.37       0.238
  WS02006229           JUNCTION      0.89  2308.41     0  00:51    0.000694        9.36       0.273
  WS02006280           JUNCTION      0.23  2307.02     0  00:50    0.000312        9.17       0.028
  WS02006284           JUNCTION      0.16  2306.76     0  00:50    0.000725        9.18       0.151
  WS02006287           JUNCTION      0.18  2307.20     0  00:50    6.46e-05        9.19       0.104
  WS02003091           JUNCTION      0.45  1194.64     0  00:00    0.000917        3.42      -1.191
  WS02003203           JUNCTION      0.34  2264.56     0  00:00    0.000138        5.24       0.208
  WS6145               JUNCTION      0.23   234.54     0  00:50    0.000341        0.09       0.369
  WS6147               JUNCTION      0.00   235.15     0  00:50           0       0.079       0.215
  WS6150               JUNCTION      0.09   235.59     0  00:50    0.000382      0.0681       0.463
  WS6152               JUNCTION      0.64   240.63     0  00:50     0.00424      0.0572       0.757
  WS6155               JUNCTION      0.19   238.69     0  00:50    4.57e-05      0.0423       0.459
  WS6156               JUNCTION      0.69   235.34     0  00:50     0.00383      0.0311       0.333
  WS6136               JUNCTION      0.21   733.68     0  00:50    4.92e-05        1.43       0.047
  WS6140               JUNCTION      0.17   233.33     0  00:50    0.000115        0.11       0.115
  WS6142               JUNCTION      0.18   233.92     0  00:50    0.000142       0.101       0.223
  WS6325               JUNCTION      0.19   143.03     0  00:49    0.000173      0.0882       1.655
  WS6327               JUNCTION      0.14   142.97     0  00:49    0.000452      0.0785       0.146
  WS6329               JUNCTION      0.49   143.01     0  00:49     0.00185      0.0678       0.201
  WS6332               JUNCTION      0.34   142.81     0  00:49    0.000722      0.0551       0.178
  WS6158               JUNCTION      1.86   258.28     0  00:51      0.0119      0.0156      -1.410
  WS6335               JUNCTION      0.66   142.87     0  00:49     0.00358      0.0431       0.381
  WS6338               JUNCTION      0.33   142.69     0  00:49     0.00105      0.0282       0.183
  WS6340               JUNCTION      0.21   145.24     0  00:49    0.000173      0.0155       0.128
  WS6342               JUNCTION      0.62   150.11     0  00:49     0.00314     0.00626      -1.030
  WS6135               JUNCTION      0.08   733.66     0  00:49    1.89e-05        1.52       0.428
  WS6396               JUNCTION      0.00   547.47     0  00:58           0        1.43       0.176
  WS6399               JUNCTION      0.00   547.46     0  00:58           0        1.42       0.066
  WS02003082           JUNCTION      0.47   590.34     0  00:44     0.00143        3.38       0.542
  WS02003077           JUNCTION      0.60   591.08     0  00:44     0.00441        3.34       0.215
  WS02003080           JUNCTION      0.00   590.35     0  00:44           0        3.35       0.454
  WS02003083           JUNCTION      0.00   590.22     0  00:44           0        3.39       0.262
  WS02003084           JUNCTION      0.04   590.33     0  00:44    0.000324         3.4       0.280
  WS02003085           JUNCTION      0.00   590.21     0  00:44           0         3.4       0.181
  WS02003086           JUNCTION      0.49   664.19     0  00:01     0.00361        3.42       0.443
  WS02003087           JUNCTION      0.00  1079.03     0  00:00           0        3.42       0.310
  WS02003088           JUNCTION      0.55  2146.84     0  00:00     0.00159        3.46       0.435
  WS02003089           JUNCTION      0.25  1590.77     0  00:00    0.000326        3.45      -0.297
  WS02003090           JUNCTION      0.40  1148.82     0  00:00    0.000468        3.42      -0.753
  WS02003081           JUNCTION      0.04   590.41     0  00:44    5.27e-06        3.36       0.426
  WS02003122           JUNCTION      0.00   221.33     0  00:35           0        1.03       1.442
  WS02003187           JUNCTION    532.92   709.92     0  00:53       0.792        1.78       0.730
  WS02003188           JUNCTION      0.48   403.49     0  01:01     0.00102        1.59       0.777
  WS02003190           JUNCTION      0.15   608.63     0  01:03     4.6e-06         2.4       0.566
  WS02003193           JUNCTION    862.16  1125.81     0  00:53        1.26        2.26       0.784
  WS02003195           JUNCTION      0.31   318.56     0  00:01    0.000584        1.08       1.407
  WS02003196           JUNCTION      0.00   392.10     0  00:01           0        1.07       1.309
  WS02003198           JUNCTION    245.13   509.33     0  00:01       0.427        1.12       1.553
  WS02003200           JUNCTION      4.20   620.10     0  00:01      0.0288       0.728      -1.418
  WS02003201           JUNCTION      0.19   609.38     0  00:01    5.96e-05         1.8      -0.618
  WS02003202           JUNCTION      0.04   709.13     0  00:00       6e-05        1.82       0.586
  WS02004041           JUNCTION      0.50  3088.25     0  00:52     0.00368        13.3       0.143
  WSA6400              JUNCTION      0.00   547.58     0  00:58           0        1.42       0.369
  WS6400               JUNCTION      0.00   547.45     0  00:58           0        1.42       0.031
  WSF208               JUNCTION      0.00   547.49     0  00:58           0        1.42       0.302
  WSF207               JUNCTION      1.60   549.28     0  00:58      0.0117        2.04       0.181
  WSF206               JUNCTION      0.00   450.27     0  00:50           0        1.95       0.336
  WSF205               JUNCTION      0.00   450.27     0  00:50           0        1.94       0.449
  WSF204               JUNCTION      0.00   450.21     0  00:50           0        1.94       0.685
  WSF203               JUNCTION      0.00   450.23     0  00:50           0        1.92       0.443
  WSF202               JUNCTION      1.27   452.88     0  00:49     0.00934        1.92       0.358
  WSF201               JUNCTION      0.00   452.97     0  00:49           0        1.92       0.224
  WSF200               JUNCTION      0.00  2305.59     0  00:52           0        9.05       0.134
  HS02004901           JUNCTION      0.21   265.79     0  01:11    0.000122       0.448       1.438
  HS02004881           JUNCTION    168.51  1663.33     0  00:51       0.237           4       0.040
  HS02004876           JUNCTION    297.87  1510.64     0  00:55        0.46        3.77       0.168
  HS02004870           JUNCTION    305.93  1374.85     0  00:48       0.447        3.31       0.100
  HS02004862           JUNCTION    300.83  1298.29     0  00:48       0.579        2.89       0.146
  HS02004856           JUNCTION    228.64  1236.40     0  00:47       0.336        2.32       0.171
  HS02004852           JUNCTION      0.00  1114.33     0  00:47           0        1.99       0.174
  HS02004848           JUNCTION    644.78  1124.71     0  00:47        1.34        2.11       0.141
  HS02004842           JUNCTION      0.14   872.48     0  00:47    6.85e-06       0.897       1.817
  HS02004837           JUNCTION    514.75   871.42     0  00:47       0.816        1.33       0.278
  HS02004830           JUNCTION      0.15   656.10     0  00:46      0.0011       0.968       0.488
  HS02004824           JUNCTION    713.17  1288.88     0  00:54        1.38        2.01       0.298
  HS02004817           JUNCTION      0.60  1196.74     0  00:56     0.00441        1.66       1.704
  HS02004807           JUNCTION    565.89  1758.01     0  00:53       0.816        2.39       0.653
  HS02004802           JUNCTION      0.04  1233.06     0  00:56    5.13e-06        2.12       0.654
  HS02004799           JUNCTION    449.92  1592.02     0  00:53       0.665        5.74       0.285
  HS02004792           JUNCTION   2290.23  3153.46     0  00:53        3.99        6.74       0.143
  HS02004788           JUNCTION    691.71   869.64     0  00:52        1.15        2.77       0.220
  HS02004785           JUNCTION      0.15   644.76     0  00:45      0.0011        1.63       0.612
  HS02004777           JUNCTION      0.30   633.27     0  00:45     0.00077        1.65       0.969
  HS02004770           JUNCTION   1903.40  1903.40     0  00:53         3.1        3.11       0.396
  HS02004480           JUNCTION      0.27  2217.42     0  00:47    0.000417        7.32       0.198
  HS02004479           JUNCTION      0.38   700.83     0  00:47    0.000715        1.92       0.293
  HS02004478           JUNCTION      0.15  2307.68     0  00:51    6.63e-05        9.23       0.060
  HS02004053           JUNCTION      0.03  1035.76     0  00:50    6.08e-06        2.45       0.088
  HS02004052           JUNCTION      0.25  1036.21     0  00:50    7.51e-05        2.45       0.098
  HS02004049           JUNCTION      0.46  1517.83     0  00:50      0.0019        2.83       0.031
  HS02004048           JUNCTION   1207.80  2336.85     0  00:52         1.6        3.09       0.058
  HS02004046           JUNCTION      0.80  1136.41     0  00:52     0.00588         1.5       0.120
  HS02004043           JUNCTION      1.50  1135.71     0  00:52       0.011        1.49       0.033
  HS02004041           JUNCTION      0.08  1138.20     0  00:52     0.00056        1.48       0.027
  HS02004038           JUNCTION   1137.80  1137.80     0  00:52        1.48        1.48       0.054
  HS02004036           JUNCTION      0.00     0.00     0  00:00           0           0       0.000 ltr
  HS02004034           JUNCTION      0.00     0.00     0  00:00           0           0       0.000 ltr
  HS02004028           JUNCTION   1012.11  1012.11     0  00:52        1.28        1.28       0.021
  HS02004027           JUNCTION      0.12   616.53     0  00:49    1.73e-05        1.17       0.033
  HS02004026           JUNCTION      0.07   617.10     0  00:49    6.24e-06        1.17       0.033
  HS02004024           JUNCTION      0.00   615.06     0  00:49           0        1.17       0.044
  HS02004022           JUNCTION    385.49   985.64     0  00:52        0.51        1.68       0.033
  HS02004021           JUNCTION      0.41   801.15     0  00:57     0.00167        1.62       0.041
  HS02004019           JUNCTION      0.11  1521.60     0  00:48    3.41e-06        3.52       0.042
  HS02004018           JUNCTION    218.02  1001.18     0  00:51       0.249        2.06       0.032
  HS02004017           JUNCTION      0.12  1413.72     0  00:52    3.49e-06        2.03       0.041
  HS02004013           JUNCTION    940.31  1413.57     0  00:52        1.43        2.03       0.045
  HS02004010           JUNCTION    473.67   473.67     0  00:52       0.602       0.602       0.033
  HS02003174           JUNCTION      0.00  2442.66     0  00:53           0        4.77       0.178
  HS02003171           JUNCTION    268.94  2332.69     0  00:53       0.417        4.25       0.358
  HS02003170           JUNCTION      0.00  2065.70     0  00:53           0        3.84       0.146
  HS02003168           JUNCTION      0.00  2066.91     0  00:53           0        3.84       0.173
  HS02003166           JUNCTION    659.30  2064.75     0  00:53        1.11        3.85       0.081
  HS02003162           JUNCTION      0.15  1062.71     0  00:51    5.24e-05        3.13       0.060
  HS02003160           JUNCTION    614.75  1678.61     0  00:51        0.76        3.89       0.041
  HS02003150           JUNCTION      0.17  1677.11     0  00:51    0.000186        3.89       0.035
  HS02003148           JUNCTION    678.76  2352.89     0  00:51       0.832        4.72       0.060
  HS02003145           JUNCTION    975.39  3317.49     0  00:52        1.29           6       0.005
  HS02003143           JUNCTION      0.29  2647.69     0  00:49     0.00133        5.81       0.011
  HS02003138           JUNCTION      0.32     0.32     0  01:03    0.000554    0.000554       0.000
  HS02003136           JUNCTION    387.91  2417.98     0  00:52       0.539        6.01       0.373
  HS02003125           JUNCTION      0.41  1984.31     0  00:52     0.00301        2.57       1.327
  HS02003122           JUNCTION    362.30  1984.14     0  00:52       0.537        2.58       1.417
  HS02003119           JUNCTION   1059.09  1626.66     0  00:52        1.35        2.09       2.351
  HS02003116           JUNCTION      0.06   651.20     0  00:53    0.000404       0.745       5.931
  HS02003111           JUNCTION      0.00   605.61     0  00:54           0       0.715       0.648
  HS02003108           JUNCTION      0.00   605.41     0  00:54           0       0.719       0.977
  HS02003100           JUNCTION      0.00   604.09     0  00:54           0       0.721       0.509
  HS02003088           JUNCTION    573.11   599.22     0  00:53       0.717       0.757       0.312
  HS02003084           JUNCTION      0.03   158.19     0  00:51    0.000235      0.0596       0.090
  HS02003079           JUNCTION      0.15   109.26     0  00:51     0.00108      0.0286       0.317
  HS02003077           JUNCTION      0.00    43.09     0  00:48           0     0.00562       0.018
  HS02003065           JUNCTION      0.26  1187.01     0  00:43    0.000164        4.26       0.060
  HS02003056           JUNCTION      0.00  2030.10     0  00:52           0        5.46       0.184
  HS02003053           JUNCTION    382.40  1015.67     0  00:52       0.537        1.23       0.154
  HS02003042           JUNCTION      0.12   635.65     0  00:51    3.78e-06       0.686       0.261
  HS02003039           JUNCTION      0.00   635.40     0  00:51           0       0.671       0.139
  HS02003036           JUNCTION   1003.97  1003.97     0  00:52         1.4        1.41       0.092
[...]
  WS02003190WS02003193        1.59      1.59      1.60      0.01         0.01
  WS02005155WS02003110        1.53      1.53      1.53      0.16         0.18
  WS02003203WS02003091        1.66      1.66      1.66      1.60         1.59
  WS02003091WS02003090        1.68      1.68      1.73      0.01         0.01
  WS02003090WS02003089        1.70      1.70      1.73      1.78         0.01
  WS02003089WS02003088        1.70      1.71      1.72      1.63         1.63
  WS02003088WS02003087        1.72      1.73      1.72      1.78         1.72
  WS02003087WS02003086        1.66      1.66      1.74      1.71         0.01
  WS02003086WS02003085        1.65      1.65      1.70      1.76         0.01
  WS02003085WS02003084        1.66      1.67      1.66      1.68         1.65
  WS02003084WS02003083        1.65      1.67      1.65      1.86         1.65
  WS02003083WS02003082        1.64      1.64      1.68      1.76         0.01
  WS02003082WS02003081        1.63      1.64      1.63      1.75         1.63
  WS02003081WS02003080        1.63      1.63      1.63      1.64         1.63
  WS02003080WS02003077        0.57      0.57      1.63      1.64         0.01
  WS02003073WS02003076        0.67      0.67      1.40      0.23         0.01
  HS02004901HS02004770        0.68      0.68      0.69      0.02         0.01
  HS02004876HS02004881        0.69      0.71      0.69      1.56         0.69
  HS02004870HS02004876        0.62      0.62      0.71      0.01         0.01
  HS02004049HS02004052        0.15      0.15      0.17      0.01         0.01
  HS02004048HS02004049        0.25      0.35      0.25      0.42         0.25
  HS02004046HS02004048        0.16      0.16      0.35      0.01         0.01
  HS02004043HS02004046        0.12      0.12      0.19      0.01         0.01
  HS02004041HS02004043        0.01      0.01      0.12      0.01         0.01
  HS02004028HS02004027        0.01      0.14      0.01      0.15         0.01
  HS02003143HS02003065        0.54      0.54      0.74      0.01         0.01
  HS02004842HS02004848        0.55      0.55      0.76      0.01         0.01
  HS02004837HS02004842        0.58      0.58      0.76      0.01         0.01
  HS02004830HS02004837        0.58      0.58      0.63      0.01         0.01
  HS02004824HS02004830        0.63      0.63      0.68      0.01         0.01
  HS02004817HS02004824        0.68      0.68      1.49      0.01         0.01
  HS02004770HS02004777        0.68      0.68      0.70      0.01         0.01
  HS02004799HS02004480        0.85      0.85      0.93      0.94         0.01
  HS02004792HS02004799        0.79      0.79      0.93      0.01         0.01
  HS02004788HS02004792        0.63      0.63      0.79      0.01         0.01
  HS02004785HS02004788        0.63      0.64      0.63      1.52         0.55
  HS02004777HS02004785        0.64      0.64      0.70      0.01         0.01
  HS02004480HS02004478        0.78      0.85      0.78      1.65         0.78
  HS02004479HS02004480        0.85      0.85      0.89      0.01         0.01
  HS02003013HS02003010        0.35      0.35      0.39      0.22         0.22
  HS02003010HS02003007        0.33      0.33      0.34      0.37         0.33
  HS02003007HS02003004        0.34      0.34      0.43      0.18         0.18
  HS02003004HS02003001        0.01      0.43      0.01      1.00         0.01
  HS02003065HS02003056        0.72      0.72      0.87      0.01         0.01
  HS02003042HS02003053        0.29      0.29      0.69      0.01         0.01
  HS02003028HS02003021        0.22      0.22      0.29      0.01         0.01
  HS02003021HS02003018        0.32      0.32      0.33      0.10         0.10
  HS02003018HS02003017        0.33      0.33      0.34      0.08         0.07
  HS02003017HS02003013        0.34      0.34      0.35      0.27         0.25
  HS02004862HS02004870        0.60      0.60      0.62      0.24         0.22
  HS02004848HS02004852        0.55      0.55      0.58      0.02         0.01
  HS02004856HS02004862        0.55      0.55      0.60      0.01         0.01
  HS02004852HS02004856        0.58      0.58      0.60      0.02         0.01
  HS02004024HS02004022        0.01      0.01      0.18      0.01         0.01
  HS02004022HS02004021        0.18      0.18      0.27      0.01         0.01
  HS02004021HS02004019        0.27      0.27      0.36      0.21         0.21
  HS02004019HS02003162        0.01      0.36      0.01      0.39         0.01
  HS02004052HS02004053        0.16      0.17      0.16      0.19         0.16
  HS02003122HS02003125        1.45      1.45      1.45      0.15         0.18
  HS02003119HS02003122        1.44      1.44      1.45      0.01         0.01
  HS02003116HS02003119        1.09      1.09      1.43      0.01         0.01
  HS02003111HS02003116        0.01      0.01      1.16      0.01         0.01
  HS02004018HS02004019        0.21      0.21      0.36      0.01         0.01
  HS02003056HS02003136        0.75      0.75      1.47      0.01         0.01
  HS02004017HS02004018        0.19      0.19      0.21      0.01         0.01
  HS02004013HS02004017        0.01      0.01      0.19      0.02         0.01
  HS02004802HS02004478        0.79      0.79      0.86      0.17         0.01
  HS02004478WS02006287        0.65      0.65      0.84      0.01         0.01
  HS02003148HS02003145        0.01      0.01      0.13      0.01         0.01
  HS02003145HS02003143        0.13      0.13      0.51      0.12         0.11
  HS02003136WS02003203        1.48      1.48      1.60      0.01         0.01
  HS02003084HS02003088        0.01      0.01      0.05      0.01         0.01
  HS02003108HS02003111        0.15      0.15      0.36      0.01         0.01
  HS02003100HS02003108        0.08      0.08      0.15      0.01         0.01
  HS02003088HS02003100        0.06      0.06      0.08      0.01         0.01
  HS02004817HS02004807        0.83      0.83      1.49      0.01         0.01
  HS02004807HS02004802        0.83      0.83      0.85      0.32         0.32
  HS02003053HS02003056        0.69      0.69      0.87      0.01         0.01
  HS02003039HS02003042        0.35      0.36      0.39      0.22         0.02
  HS02003036HS02003039        0.17      0.17      0.22      0.01         0.01
  YS02001759YS02001757        0.10      0.11      0.10      0.16         0.09
  YS02001762YS02001759        0.11      0.11      0.11      0.16         0.10
  YS02001765YS02001762        0.10      0.10      0.11      0.07         0.06
  YS02001770YS02001767        0.11      0.13      0.11      0.63         0.11
  YS02001774YS02001770        0.12      0.12      0.15      0.01         0.01
  YS02001779YS02001774        0.08      0.08      0.15      0.01         0.01
  YS02001767YS02001765        0.10      0.11      0.10      0.19         0.10
  YS02006561YS02001783        0.43      0.43      0.62      0.01         0.01
  YS02001783YS02001784        0.60      0.62      0.60      0.78         0.60
  YS02001784YS02001785        0.50      0.60      0.50      1.07         0.50
  YS02001790YS02001791        0.01      0.01      0.01      0.58         0.01
  YS02001910YS02001907        0.65      0.65      0.84      0.01         0.01
  YS02001786YS02001788        0.01      0.50      0.01      0.89         0.01
  YS02001915YS02001910        0.57      0.57      0.65      0.01         0.01
  YS02001918YS02001915        0.48      0.48      0.57      0.01         0.01
  YS02001923YS02001920        0.42      0.42      0.50      0.01         0.01
  YS02001926YS02001923        0.15      0.15      0.18      0.01         0.01
  YS02001929YS02001926        0.02      0.02      0.18      0.01         0.01
  YS02001932YS02001929        0.01      0.01      0.02      0.01         0.01
  YS02001935YS02001932        0.01      0.01      0.01      0.01         0.01
  YS02001920YS02001918        0.48      0.48      0.50      0.01         0.01
  YS02003290YS02003287        1.41      1.41      1.58      0.01         0.01
  YS02003294YS02003290        1.43      1.43      1.63      0.03         0.01
  YS02003297YS02003294        1.61      1.61      1.61      0.34         0.33
  YS02003275YS02003272        1.16      1.29      1.16      1.55         1.16
  YS02003300YS02003297        1.50      1.50      1.59      0.01         0.01
  YS02003303YS02003300        1.39      1.39      1.55      0.01         0.01
  YS02005582YS02005583        0.24      0.48      0.24      0.69         0.24
  YS02003272YS02003269        0.01      1.24      0.01      1.55         0.01
  YS02003278YS02003275        1.35      1.59      1.35      1.70         1.35
  YS02003281YS02003278        1.54      1.54      1.58      1.34         1.34
  YS02003284YS02003281        1.54      1.54      1.59      0.98         0.32
  YS02003287YS02003284        1.57      1.57      1.60      0.01         0.05
  YS02003306YS02003303        1.34      1.34      1.49      0.45         0.45
  YS02003309YS02003306        1.22      1.22      1.34      0.01         0.01
  YS02005600YS02005375        0.18      0.18      0.19      0.19         0.18
  YS02005384YS02005593        0.01      1.24      0.01      1.30         0.01
  YS02005595YS02005596        0.27      0.29      0.28      0.31         0.27
  YS02005612YS02005613        0.08      0.08      0.94      0.29         0.01
  YS02005553YS02005554        0.01      0.01      0.01      0.06         0.01
  YS02005556YS02005557        0.01      0.01      0.01      0.07         0.01
  YS02005571YS02005572        0.01      0.01      0.01      0.18         0.01
  YS02005579YS02005580        0.01      0.32      0.01      0.51         0.01
  YS02005580YS02005581        0.01      0.01      0.01      0.07         0.01
  YS02005583YS02005584        0.24      0.24      0.25      0.25         0.24
  YS02006553YS02006556        0.75      0.75      0.87      0.01         0.01
  YS02006556YS02006558        0.80      0.80      0.89      0.01         0.01
  YSB6556YSB1171              0.96      0.96      1.57      0.01         0.01
  YSB1202YSB1205              1.30      1.30      1.33      0.01         0.01
  YSB1205YSB1209              1.33      1.33      1.33      1.03         0.98
  YSB1209YSB1212              1.31      1.33      1.31      1.42         1.31
  YSB1212YSB1215              1.31      1.31      1.31      0.75         0.74
  YSB1215YSB1218              1.31      1.31      1.31      0.83         0.82
  YSB1218YSB1221              1.30      1.30      1.31      1.11         1.11
  YSB1221YSB1224              1.31      1.31      1.32      1.30         1.30
  YSB1224YSB1105              0.87      1.35      0.87      1.43         0.87
  YSB1189YSB1186              0.57      0.57      0.68      0.12         0.13
  YS02001907YS02006553        1.08      1.08      1.17      0.01         0.01
  YS02006562YS02006558        0.63      0.63      0.89      0.01         0.01
  YS02006558YS02006561        0.52      0.74      0.52      1.01         0.52
  YS6184YS6187                0.12      0.12      0.14      0.04         0.05
  YS6360YS6363                0.10      0.13      0.10      0.67         0.10
  YS6354YS6360                0.19      0.20      0.20      0.20         0.18
  YS6351YS6354                0.20      0.22      0.20      0.40         0.20
  YS6350YS6351                0.22      0.24      0.22      0.70         0.22
  YS6348YS6350                0.23      0.23      0.24      0.21         0.20
  YS6344YS6348                0.23      0.23      0.29      0.01         0.01
  YS6363YS6132                0.10      0.10      0.25      0.01         0.01
  YS6137YS6132                0.17      0.17      0.34      0.01         0.01
  YS6189YS6137                0.17      0.17      0.18      1.36         0.01
  YS6187YS6189                0.12      0.12      0.14      0.27         0.01
  YS6179YS6184                0.10      0.10      0.12      0.01         0.01
  YS6176YS6179                0.03      0.03      0.10      0.01         0.01
  YS6171YS6176                0.06      0.06      0.10      0.01         0.01
  YS6168YS6171                0.06      0.06      0.06      0.02         0.02
  YS6164YS6168                0.01      0.01      0.06      0.01         0.01
  YS6162YS6164                0.06      0.06      0.07      0.01         0.01
  YS6132YS6404                0.01      0.14      0.01      0.27         0.01
  YSB1106YSB1105              0.01      0.13      0.01      0.18         0.01
  YSB1109YSB1106              0.13      0.19      0.13      0.33         0.13
  YSB1112YSB1109              0.19      0.20      0.19      0.23         0.19
  YSB1115YSB1112              0.18      0.18      0.20      0.13         0.13
  YSB1118YSB1115              0.20      0.21      0.20      0.23         0.20
  YSB1121YSB1118              0.21      0.24      0.21      0.33         0.21
  YSB1124YSB1121              0.20      0.20      0.24      0.01         0.01
  YSB1105YSB1103              0.01      0.01      0.11      0.11         0.01
  YS02001751YS02001754        0.01      0.01      0.01      0.01         0.01
  YS02001754YS02001757        0.01      0.01      0.10      0.01         0.01
  YS02001882YS02001884        0.57      0.57      0.58      0.01         0.01
  YS02001884YS02001887        0.60      0.60      0.61      0.01         0.01
  YS02001890YS02001895        0.56      0.56      0.66      0.01         0.01
  YS02001895YS02001898        0.55      0.55      0.56      0.01         0.01
  YS02001898YS02001901        0.56      0.56      0.60      0.01         0.01
  YS02001901YS02001904        0.59      0.59      0.60      0.01         0.01
  YS02001904YS02001907        0.59      0.59      0.87      0.01         0.01
  YS02001887YS02001890        0.63      0.63      0.64      0.15         0.01
  YS02004309YS02004307        0.14      0.87      0.14      0.85         0.14
  YS02004319YS02004316        0.33      0.33      0.35      0.01         0.01
  YS02005376YS02005378        1.56      1.56      1.80      0.01         0.01
  YS02005378YS02005381        1.76      1.76      1.80      0.41         0.01
  YS02005381YS02005384        1.24      1.24      1.76      1.78         0.01
  YS02005598YS02005374        0.19      0.19      0.21      0.21         0.19
  YS02005602YS02005603        0.16      0.43      0.16      0.55         0.16
  YS02005603YS02005607        0.16      0.16      0.17      0.17         0.16
  YS02005621YS02005622        0.01      0.01      0.01      0.02         0.01
  YS02005624YS02005625        0.01      0.01      0.20      0.01         0.01
  YS02005630YS02005631        0.01      0.01      0.01      0.04         0.01
  YS02005636YS02005637        0.01      0.01      0.01      0.07         0.01
  YS02005627YS02005628        0.01      0.01      0.01      0.21         0.01
  YS02005644YS02005645        0.01      0.11      0.01      0.13         0.01
  YS02005650YS02005651        0.01      0.09      0.01      0.18         0.01
  YS02005653YS02005654        0.07      0.07      0.08      0.07         0.06
  YS02005654YS02005655        0.01      0.08      0.01      0.16         0.01
  YS02005658YS02005659        0.01      0.01      0.01      0.05         0.01
  YS02005661YS02005662        0.01      0.07      0.01      0.18         0.01
  YS02005664YS02005665        0.01      0.08      0.01      0.41         0.01
  YS02005667YS02005668        0.01      0.01      0.48      0.11         0.01
  YS02005647YS02005648        0.01      0.24      0.01      0.37         0.01
  YS02004312YS02004309        0.56      0.56      0.87      0.01         0.01
  YS02004314YS02004312        0.37      0.37      0.56      0.01         0.01
  YS02004316YS02004314        0.35      0.35      0.37      0.29         0.29
  YS02004320YS02004319        0.01      0.01      0.25      0.01         0.01
  YS6404YS6401                0.01      0.01      0.01      0.66         0.01
  YSB1132YSB1135              0.57      0.57      0.62      0.01         0.01
  YSB1135YSB1138              0.62      0.62      0.66      0.01         0.01
  YSB1138YSB1141              0.66      0.66      0.74      0.39         0.39
  YSB1141YSB1145              0.72      0.72      0.75      0.37         0.35
  YSB1148YSB1151              0.83      0.83      1.07      0.01         0.01
  YSB1151YSB1154              0.93      0.93      1.24      0.01         0.01
  YSB1154YSB6556              0.96      0.96      1.24      0.40         0.01
  YSB1128YSB1132              0.54      0.54      0.57      0.01         0.01
  YSB1145YSB1148              0.75      0.75      0.83      0.01         0.01
  YSB1198YSB1195              0.23      0.23      0.51      0.01         0.01
  YSB1195YSB1192              0.51      0.51      0.54      0.01         0.01
  YSB1192YSB1189              0.54      0.54      0.57      0.01         0.01
  YSB1186YSB1183              0.62      0.62      0.74      0.01         0.01
  YSB1183YSB1180              0.74      0.74      0.78      0.16         0.17
  YSB1180YSB1177              0.78      0.78      1.12      0.01         0.01
  YSB1177YSB1174              1.12      1.12      1.38      0.17         0.18
  YSB1174YSB1171              1.07      1.07      1.52      0.13         0.14
  YSB1171HS02004479           0.82      0.82      1.21      0.01         0.01
  YS02004307HS02004052        0.01      0.01      0.17      0.01         0.01
  HS02004881HS02006253        0.69      0.69      1.49      0.01         0.01
  WS0200404049WS6136          0.15      0.15      0.24      0.01         0.01
  HS02003125WS02003215        1.45      1.45      1.47      0.01         0.01
  YS02001793JiankangQianchi        0.01      0.01      2.03      0.01         0.01
  YS02001757CaochengTiaoxuchi        0.09      0.10      0.72      0.08         0.05
  WS02004041WS6409            1.04      1.04      1.13      1.12         1.04
  WSF200WS02003060            0.24      0.24      0.49      0.01         0.01
  HS02004053WS02004407        0.16      0.16      1.07      0.01         0.01
  HS02003036HS02003028        0.17      0.17      0.27      0.01         0.01
  
  
  ***************
  Pumping Summary
  ***************
  
  ---------------------------------------------------------------------------------------------------------
                                                  Min       Avg       Max     Total     Power    % Time Off
                        Percent   Number of      Flow      Flow      Flow    Volume     Usage    Pump Curve
  Pump                 Utilized   Start-Ups       LPS       LPS       LPS  10^6 ltr     Kw-hr    Low   High
  ---------------------------------------------------------------------------------------------------------
  CaochengSewagePump1     90.65           1      0.00    200.00    200.00     1.333     10.11    0.0    0.0
  CaochengSewagePump2     56.77           1      0.00    200.00    200.00     0.835      6.62    0.0    0.0
  CaochengRainPump1       53.09           1      0.00    683.00    683.00     2.666      3.89    0.0   40.2
  CaochengRainPump2        0.00           0      0.00      0.00      0.00     0.000      0.00    0.0    0.0
  JiankangSewagePump      70.59           1      0.00    300.00    300.00     1.557     23.40    0.0    0.0
  JiankangRainPump1       32.55           4      0.00   1000.00   1000.00     2.394     15.63    0.0    0.0
  JiankangRainPump2        0.00           0      0.00      0.00      0.00     0.000      0.00    0.0    0.0
  XierchiSewagePump1      91.83           1      0.00     95.00     95.00     0.641      3.96    0.0    0.0
  XierchiSewagePump2      76.30           1      0.00     95.00     95.00     0.533      3.12    0.0    0.0
  XierchiSewagePump3       0.00           0      0.00      0.00      0.00     0.000      0.00    0.0    0.0
  XierchiSewagePump4       0.00           0      0.00      0.00      0.00     0.000      0.00    0.0    0.0
  

  Analysis begun on:  Wed Oct 19 10:40:03 2022
  Analysis ended on:  Wed Oct 19 11:12:25 2022
  Total elapsed time: 00:32:22