
  EPA STORM WATER MANAGEMENT MODEL - VERSION 5.1 (Build 5.3.0.dev0)
  --------------------------------------------------------------

  WARNING 04: minimum elevation drop used for Conduit WS02004404WS02004405
  WARNING 03: negative offset ignored for Link YS02001904YS02001907
  
  *********************************************************
  NOTE: The summary statistics displayed in this report are
  based on results found at every computational time step,  
  not just on results from each reporting time step.
  *********************************************************
  
  ****************
  Analysis Options
  ****************
  Flow Units ............... LPS
  Process Models:
    Rainfall/Runoff ........ YES
    RDII ................... NO
    Snowmelt ............... NO
    Groundwater ............ NO
    Flow Routing ........... YES
    Ponding Allowed ........ NO
    Water Quality .......... NO
  Infiltration Method ...... HORTON
  Flow Routing Method ...... DYNWAVE
  Surcharge Method ......... EXTRAN
  Starting Date ............ 03/31/2017 00:00:00
  Ending Date .............. 03/31/2017 05:00:00
  Antecedent Dry Days ...... 8.0
  Report Time Step ......... 00:00:30
  Wet Time Step ............ 00:01:00
  Dry Time Step ............ 00:01:00
  Routing Time Step ........ 30.00 sec
  Variable Time Step ....... YES
  Maximum Trials ........... 8
  Number of Threads ........ 6
  Head Tolerance ........... 0.001500 m
  
  
  **************************        Volume         Depth
  Runoff Quantity Continuity     hectare-m            mm
  **************************     ---------       -------
  Total Precipitation ......        12.586       106.806
  Evaporation Loss .........         0.000         0.000
  Infiltration Loss ........         0.553         4.691
  Surface Runoff ...........        11.785       100.013
  Final Storage ............         0.251         2.133
  Continuity Error (%) .....        -0.029
  
  
  **************************        Volume        Volume
  Flow Routing Continuity        hectare-m      10^6 ltr
  **************************     ---------     ---------
  Dry Weather Inflow .......         0.342         3.420
  Wet Weather Inflow .......        11.785       117.852
  Groundwater Inflow .......         0.000         0.000
  RDII Inflow ..............         0.000         0.000
  External Inflow ..........         0.080         0.799
  External Outflow .........         6.897        68.969
  Flooding Loss ............         5.222        52.220
  Evaporation Loss .........         0.000         0.000
  Exfiltration Loss ........         0.000         0.000
  Initial Stored Volume ....         0.303         3.031
  Final Stored Volume ......         0.428         4.279
  Continuity Error (%) .....        -0.293
  
  
  *************************
  Highest Continuity Errors
  *************************
  Node HS02004036 (100.00%)
  Node YS02001884 (7.05%)
  Node YS02004320 (4.77%)
  Node YS6162 (3.86%)
  Node WS02003059 (1.32%)
  
  
  ***************************
  Time-Step Critical Elements
  ***************************
  Link WS02004041WS6409 (41.26%)
  Link YS02005655YS02005657 (26.50%)
  Link WS02006252WS02006251 (18.31%)
  Link WS02006280WS02006229 (1.15%)
  Link WS02003073WS02003076 (1.14%)
  
  
  ********************************
  Highest Flow Instability Indexes
  ********************************
  Link WS02006238WS02006235 (56)
  Link WS02003200WS02003201 (49)
  Link WS02003215WS02003116 (48)
  Link WS02003203WS02003091 (47)
  Link WS02004404WS02004405 (47)
  
  
  *************************
  Routing Time Step Summary
  *************************
  Minimum Time Step           :     0.50 sec
  Average Time Step           :     1.03 sec
  Maximum Time Step           :    30.00 sec
  Percent in Steady State     :     0.00
  Average Iterations per Step :     5.07
  Percent Not Converging      :    26.12
  
  
  ***************************
  Subcatchment Runoff Summary
  ***************************
  
  ------------------------------------------------------------------------------------------------------------------------------
                            Total      Total      Total      Total     Imperv       Perv      Total       Total     Peak  Runoff
                           Precip      Runon       Evap      Infil     Runoff     Runoff     Runoff      Runoff   Runoff   Coeff
  Subcatchment                 mm         mm         mm         mm         mm         mm         mm    10^6 ltr      LPS
  ------------------------------------------------------------------------------------------------------------------------------
  sub0                     106.81       0.00       0.00       1.28      98.02       6.19     104.22        0.08    59.55   0.976
  sub1                     106.81       0.00       0.00       2.01      93.49       9.61     103.11        0.69   403.26   0.965
  sub2                     106.81       0.00       0.00       6.74      66.07      30.72      96.79        0.90   422.34   0.906
  sub3                     106.81       0.00       0.00       6.74      65.86      29.94      95.80        2.16   916.01   0.897
  sub4                     106.81       0.00       0.00       2.01      92.67       9.45     102.12        2.13   995.46   0.956
  sub5                     106.81       0.00       0.00       1.28      97.69       6.15     103.84        1.18   693.03   0.972
  sub6                     106.81       0.00       0.00       1.28      97.49       6.13     103.63        2.68  1479.80   0.970
  sub7                     106.81       0.00       0.00       1.64      95.79       7.92     103.71        0.35   226.86   0.971
  sub8                     106.81       0.00       0.00       1.64      95.72       7.91     103.63        0.66   414.23   0.970
  sub9                     106.81       0.00       0.00       1.64      95.71       7.91     103.62        0.50   309.18   0.970
  sub10                    106.81       0.00       0.00       1.46      96.69       7.03     103.71        1.14   684.18   0.971
  sub11                    106.81       0.00       0.00       1.46      96.80       7.04     103.84        1.21   764.34   0.972
  sub12                    106.81       0.00       0.00       2.37      91.66      11.44     103.10        0.90   616.85   0.965
  sub13                    106.81       0.00       0.00       6.20      69.43      29.10      98.54        1.17   658.05   0.923
  sub14                    106.81       0.00       0.00       1.64      95.70       7.90     103.60        0.99   607.62   0.970
  sub15                    106.81       0.00       0.00       5.47      73.59      25.69      99.28        1.71   954.17   0.930
  sub16                    106.81       0.00       0.00       6.02      70.57      28.55      99.12        1.04   641.19   0.928
  sub17                    106.81       0.00       0.00       5.83      71.60      27.66      99.27        0.85   520.12   0.929
  sub18                    106.81       0.00       0.00       1.64      95.83       7.93     103.76        0.83   549.43   0.971
  sub19                    106.81       0.00       0.00       5.65      72.64      26.78      99.42        0.32   190.82   0.931
  sub20                    106.81       0.00       0.00       1.64      95.78       7.92     103.70        0.72   468.20   0.971
  sub21                    106.81       0.00       0.00       2.19      92.68      10.56     103.24        0.52   351.86   0.967
  sub22                    106.81       0.00       0.00       7.84      59.98      36.44      96.42        6.09  3207.28   0.903
  sub23                    106.81       0.00       0.00       6.74      66.31      31.67      97.98        4.67  2633.44   0.917
  sub24                    106.81       0.00       0.00       2.55      90.56      12.29     102.85        3.69  2441.90   0.963
  sub25                    106.81       0.00       0.00       1.28      98.04       6.20     104.24        1.35   971.40   0.976
  sub26                    106.81       0.00       0.00       4.38      80.14      21.12     101.26        1.44  1054.80   0.948
  sub27                    106.81       0.00       0.00       1.64      95.68       7.90     103.58        1.50   912.26   0.970
  sub28                    106.81       0.00       0.00       1.46      96.71       7.03     103.74        1.63   984.18   0.971
  sub29                    106.81       0.00       0.00       1.46      96.39       6.99     103.38        1.67   903.96   0.968
  sub30                    106.81       0.00       0.00       1.46      96.93       7.07     103.99        2.34  1609.05   0.974
  sub31                    106.81       0.00       0.00       3.10      87.47      14.95     102.42        2.17  1516.15   0.959
  sub32                    106.81       0.00       0.00       1.46      96.85       7.05     103.90        2.07  1349.83   0.973
  sub33                    106.81       0.00       0.00       2.37      91.67      11.45     103.11        1.89  1301.18   0.965
  sub34                    106.81       0.00       0.00       9.11      52.71      43.21      95.92        2.14  1307.23   0.898
  sub35                    106.81       0.00       0.00       1.45      97.04       7.10     104.14        0.36   288.52   0.975
  sub36                    106.81       0.00       0.00       4.01      82.23      19.34     101.58        0.88   628.90   0.951
  sub37                    106.81       0.00       0.00       7.11      64.32      34.10      98.43        0.75   518.63   0.922
  sub38                    106.81       0.00       0.00       6.38      68.55      30.72      99.27        1.88  1364.90   0.929
  sub39                    106.81       0.00       0.00       1.46      97.01       7.08     104.09        1.11   821.04   0.975
  sub40                    106.81       0.00       0.00       1.46      97.01       7.09     104.10        1.21   905.69   0.975
  sub41                    106.81       0.00       0.00       2.92      88.55      14.10     102.64        1.97  1404.23   0.961
  sub42                    106.81       0.00       0.00       1.64      95.95       7.96     103.91        1.04   766.40   0.973
  sub43                    106.81       0.00       0.00       6.93      65.33      32.89      98.22        0.80   499.13   0.920
  sub44                    106.81       0.00       0.00       1.28      97.79       6.16     103.95        1.17   718.95   0.973
  sub45                    106.81       0.00       0.00       3.10      87.34      14.84     102.18        1.87  1172.54   0.957
  sub46                    106.81       0.00       0.00      11.48      39.01      53.96      92.97        0.65   350.52   0.870
  sub47                    106.81       0.00       0.00       1.46      96.86       7.05     103.91        0.79   521.04   0.973
  sub48                    106.81       0.00       0.00       1.64      95.79       7.92     103.71        0.79   514.73   0.971
  sub49                    106.81       0.00       0.00       1.46      96.77       7.04     103.81        0.95   592.37   0.972
  sub50                    106.81       0.00       0.00       1.46      96.79       7.04     103.82        0.73   457.71   0.972
  sub51                    106.81       0.00       0.00       1.46      96.89       7.06     103.94        0.49   327.75   0.973
  sub52                    106.81       0.00       0.00       1.28      97.81       6.16     103.97        1.13   697.53   0.973
  sub53                    106.81       0.00       0.00       1.46      96.85       7.05     103.90        1.05   685.32   0.973
  sub54                    106.81       0.00       0.00       1.28      97.68       6.15     103.82        0.62   363.02   0.972
  sub55                    106.81       0.00       0.00       1.46      96.70       7.03     103.73        0.83   497.63   0.971
  sub56                    106.81       0.00       0.00       3.46      84.91      16.32     101.23        1.44   764.84   0.948
  sub57                    106.81       0.00       0.00       5.65      72.51      26.43      98.94        0.64   347.45   0.926
  sub58                    106.81       0.00       0.00      13.31      28.45      59.63      88.08        3.26  1218.54   0.825
  sub59                    106.81       0.00       0.00      14.04      24.23      60.02      84.24        1.93   598.42   0.789
  sub60                    106.81       0.00       0.00       2.19      92.61      10.53     103.14        1.36   868.49   0.966
  sub61                    106.81       0.00       0.00       3.10      87.37      14.87     102.24        1.88  1208.08   0.957
  sub62                    106.81       0.00       0.00       1.46      96.65       7.02     103.68        2.84  1680.17   0.971
  sub67                    106.81       0.00       0.00       1.46      96.70       7.03     103.73        1.93  1161.56   0.971
  sub68                    106.81       0.00       0.00       2.55      90.44      12.23     102.67        2.83  1727.81   0.961
  sub71                    106.81       0.00       0.00       1.46      96.43       6.99     103.43        2.70  1486.60   0.968
  sub72                    106.81       0.00       0.00       1.28      97.17       6.10     103.28        1.42   719.03   0.967
  sub73                    106.81       0.00       0.00       3.83      83.29      18.47     101.76        0.10    71.15   0.953
  sub74                    106.81       0.00       0.00       5.83      71.69      27.98      99.66        0.16   110.31   0.933
  sub75                    106.81       0.00       0.00       5.47      73.81      26.30     100.11        0.22   155.97   0.937
  sub76                    106.81       0.00       0.00       3.28      86.43      15.83     102.27        0.25   175.92   0.957
  sub77                    106.81       0.00       0.00       3.10      87.50      14.98     102.48        0.16   116.70   0.960
  sub78                    106.81       0.00       0.00       2.37      91.65      11.44     103.09        0.28   193.54   0.965
  sub79                    106.81       0.00       0.00       4.38      80.06      20.95     101.01        0.26   171.81   0.946
  sub80                    106.81       0.00       0.00       6.02      70.62      28.80      99.42        0.29   196.75   0.931
  sub81                    106.81       0.00       0.00       6.74      66.39      32.10      98.50        0.30   192.88   0.922
  sub82                    106.81       0.00       0.00       6.74      66.41      32.19      98.60        0.30   195.09   0.923
  sub83                    106.81       0.00       0.00       6.93      65.36      33.12      98.48        0.33   222.16   0.922
  sub84                    106.81       0.00       0.00       6.38      68.48      30.32      98.80        0.54   337.05   0.925
  sub85                    106.81       0.00       0.00       4.38      80.05      20.93     100.98        0.45   292.29   0.945
  sub86                    106.81       0.00       0.00       4.74      77.96      22.67     100.63        0.49   318.95   0.942
  sub87                    106.81       0.00       0.00       6.38      68.51      30.46      98.97        0.30   195.51   0.927
  sub88                    106.81       0.00       0.00       6.20      69.57      29.63      99.20        0.30   202.07   0.929
  sub89                    106.81       0.00       0.00       5.65      72.75      27.15      99.90        0.27   185.92   0.935
  sub90                    106.81       0.00       0.00       4.92      76.95      23.65     100.60        0.25   172.04   0.942
  sub91                    106.81       0.00       0.00       4.92      76.98      23.75     100.73        0.18   133.95   0.943
  sub92                    106.81       0.00       0.00       5.65      72.78      27.30     100.07        0.15   114.11   0.937
  sub93                    106.81       0.00       0.00       5.65      72.78      27.31     100.09        0.18   139.03   0.937
  sub94                    106.81       0.00       0.00       5.65      72.76      27.23      99.99        0.22   157.34   0.936
  sub95                    106.81       0.00       0.00       5.29      74.88      25.51     100.39        0.15   112.63   0.940
  sub96                    106.81       0.00       0.00       4.01      82.28      19.45     101.73        0.19   149.77   0.952
  sub97                    106.81       0.00       0.00      11.12      41.14      53.67      94.81        0.22   166.92   0.888
  sub98                    106.81       0.00       0.00      13.13      29.54      62.31      91.84        0.30   172.12   0.860
  sub99                    106.81       0.00       0.00      14.40      22.15      67.10      89.25        0.31   141.60   0.836
  sub100                   106.81       0.00       0.00      14.40      22.15      66.08      88.23        0.31   122.53   0.826
  sub101                   106.81       0.00       0.00      14.40      22.14      65.97      88.11        0.30   116.47   0.825
  sub102                   106.81       0.00       0.00      13.85      25.30      62.65      87.95        0.26    99.34   0.823
  sub103                   106.81       0.00       0.00      14.22      23.19      63.78      86.97        0.41   146.30   0.814
  sub104                   106.81       0.00       0.00      14.22      23.19      63.52      86.71        0.45   158.19   0.812
  sub105                   106.81       0.00       0.00      14.77      20.03      65.93      85.96        0.49   163.64   0.805
  sub106                   106.81       0.00       0.00      14.40      22.14      65.31      87.45        0.45   164.86   0.819
  sub107                   106.81       0.00       0.00      14.77      20.04      67.76      87.80        0.62   241.86   0.822
  sub108                   106.81       0.00       0.00      14.95      18.99      69.78      88.77        0.83   372.26   0.831
  sub109                   106.81       0.00       0.00      11.67      37.96      54.89      92.86        1.32   719.80   0.869
  sub110                   106.81       0.00       0.00       3.28      86.38      15.78     102.16        2.14  1443.01   0.956
  sub111                   106.81       0.00       0.00       4.74      77.97      22.70     100.67        0.86   575.50   0.943
  sub112                   106.81       0.00       0.00       3.83      83.24      18.40     101.64        0.80   545.78   0.952
  sub113                   106.81       0.00       0.00       2.55      90.61      12.32     102.92        0.71   488.00   0.964
  sub114                   106.81       0.00       0.00       2.37      91.67      11.44     103.11        0.68   470.07   0.965
  sub115                   106.81       0.00       0.00       2.19      92.71      10.57     103.28        0.76   519.73   0.967
  sub116                   106.81       0.00       0.00       7.29      63.21      34.50      97.71        0.18   109.99   0.915
  sub117                   106.81       0.00       0.00       7.47      62.18      35.48      97.66        0.45   279.42   0.914
  
  
  ******************
  Node Depth Summary
  ******************
  
  ---------------------------------------------------------------------------------
                                 Average  Maximum  Maximum  Time of Max    Reported
                                   Depth    Depth      HGL   Occurrence   Max Depth
  Node                 Type       Meters   Meters   Meters  days hr:min      Meters
  ---------------------------------------------------------------------------------
  WS02001211           JUNCTION     0.91     2.19     7.03     0  01:10        1.78
  WS02001212           JUNCTION     0.67     1.87     6.93     0  01:10        1.55
  WS02001213           JUNCTION     0.93     2.11     6.88     0  01:10        1.86
  WS02003069           JUNCTION     0.86     1.69     6.28     0  01:15        1.68
  WS02003072           JUNCTION     0.95     1.59     5.96     0  01:15        1.58
  WS02003073           JUNCTION     1.18     1.71     5.77     0  01:15        1.70
  WS02003076           JUNCTION     0.92     1.36     5.58     0  01:15        1.36
  WS02003060           JUNCTION     0.75     1.68     6.61     0  01:15        1.67
  WS02003066           JUNCTION     0.46     1.17     6.72     0  01:15        1.17
  WS02003059           JUNCTION     0.99     1.93     6.62     0  01:15        1.92
  WS02003115           JUNCTION     1.67     2.76     9.62     0  00:50        2.73
  WS02003116           JUNCTION     1.81     2.94     9.65     0  01:22        2.93
  WS02003118           JUNCTION     1.79     2.90     9.52     0  00:50        2.90
  WS02003215           JUNCTION     1.69     2.80     9.66     0  00:50        2.80
  WS02003110           JUNCTION     1.36     2.39     9.64     0  01:16        2.38
  WS02003111           JUNCTION     1.47     2.35     9.44     0  00:50        2.35
  WS02005155           JUNCTION     1.34     2.53     9.84     0  01:16        2.52
  WS02005154           JUNCTION     1.12     2.47    10.10     0  01:16        2.46
  WS02005193           JUNCTION     1.10     3.12    10.94     0  01:09        3.04
  WS02005196           JUNCTION     1.07     3.31    11.16     0  01:09        3.00
  WS02003067           JUNCTION     0.81     1.48     6.80     0  01:15        1.48
  WS02004401           JUNCTION     1.29     2.51     8.51     0  01:13        2.45
  WS02004402           JUNCTION     1.29     2.53     8.49     0  01:13        2.47
  WS02004403           JUNCTION     1.28     2.53     8.46     0  01:13        2.47
  WS02004404           JUNCTION     1.34     2.57     8.42     0  01:13        2.53
  WS02004406           JUNCTION     1.29     2.52     8.35     0  01:13        2.49
  WS02004409           JUNCTION     1.05     2.32     8.09     0  01:13        2.29
  WS02004410           JUNCTION     0.99     2.10     7.82     0  01:15        2.09
  WS02004411           JUNCTION     0.93     1.89     7.57     0  01:15        1.87
  WS02004412           JUNCTION     0.87     1.65     7.29     0  01:15        1.63
  WS02004413           JUNCTION     0.95     1.56     7.03     0  01:15        1.55
  WS02004405           JUNCTION     1.32     2.55     8.40     0  01:13        2.51
  WS02006109           JUNCTION     1.65     2.64     9.26     0  01:07        2.64
  WS02006110           JUNCTION     1.50     2.48     9.07     0  01:13        2.48
  WS02006111           JUNCTION     0.93     2.00     8.70     0  01:26        1.99
  WS02006112           JUNCTION     1.56     2.68     8.56     0  00:00        2.68
  WS02006113           JUNCTION     1.00     2.00     8.89     0  01:13        1.99
  WS02006115           JUNCTION     1.24     2.42     8.56     0  01:13        2.38
  WS02006116           JUNCTION     1.30     2.50     8.54     0  01:13        2.45
  WS02006230           JUNCTION     1.73     2.65     9.39     0  01:01        2.65
  WS02006231           JUNCTION     1.36     2.19     9.31     0  01:20        2.19
  WS02006232           JUNCTION     1.42     2.18     9.22     0  01:01        2.18
  WS02006234           JUNCTION     1.28     1.96     9.12     0  00:59        1.96
  WS02006235           JUNCTION     1.27     1.93     9.10     0  01:00        1.93
  WS02006238           JUNCTION     1.29     1.93     9.08     0  01:00        1.93
  WS02006240           JUNCTION     1.11     1.63     8.92     0  02:11        1.63
  WS02006242           JUNCTION     1.11     1.55     8.82     0  00:42        1.55
  WS02006243           JUNCTION     0.96     1.38     8.80     0  00:42        1.36
  WS02006245           JUNCTION     0.90     1.28     8.77     0  00:42        1.26
  WS02006247           JUNCTION     0.89     1.23     8.73     0  00:42        1.23
  WS02006248           JUNCTION     0.81     1.10     8.69     0  00:42        1.10
  WS02006249           JUNCTION     0.81     1.09     8.69     0  00:42        1.09
  WS02006239           JUNCTION     1.20     1.79     9.00     0  01:15        1.78
  WS02006251           JUNCTION     1.07     2.21     9.88     0  01:09        2.18
  WS02006252           JUNCTION     0.67     1.50     9.74     0  01:09        1.50
  WS02006253           JUNCTION     1.26     3.22    10.86     0  01:16        3.21
  WS02006256           JUNCTION     1.75     2.35     9.28     0  00:19        2.35
  WS02004138           JUNCTION     0.13     0.14     7.39     0  00:33        0.14
  WS02004139           JUNCTION     0.85     2.14     7.05     0  01:10        1.71
  WS02004407           JUNCTION     0.67     2.06     8.37     0  01:13        1.96
  WS02006228           JUNCTION     1.82     3.03     9.68     0  01:17        3.02
  WS02006229           JUNCTION     1.89     3.23     9.92     0  01:13        3.22
  WS02006280           JUNCTION     0.70     1.74    10.02     0  01:17        1.74
  WS02006284           JUNCTION     0.93     1.95    10.35     0  01:13        1.94
  WS02006287           JUNCTION     0.67     1.74    10.70     0  01:13        1.74
  WS02003091           JUNCTION     2.34     4.43    10.23     0  00:00        3.91
  WS02003203           JUNCTION     2.28     3.83     9.82     0  01:02        3.83
  WS6145               JUNCTION     0.32     2.33    10.43     0  01:14        2.31
  WS6147               JUNCTION     0.26     2.25    10.53     0  01:14        2.16
  WS6150               JUNCTION     0.27     2.23    10.56     0  01:14        2.12
  WS6152               JUNCTION     0.28     2.20    10.54     0  01:14        2.14
  WS6155               JUNCTION     0.24     2.10    10.50     0  01:14        2.10
  WS6156               JUNCTION     0.23     2.05    10.52     0  01:14        2.05
  WS6136               JUNCTION     0.28     1.90    10.85     0  01:14        1.90
  WS6140               JUNCTION     0.34     2.47    10.40     0  01:15        2.45
  WS6142               JUNCTION     0.31     2.34    10.42     0  01:15        2.32
  WS6325               JUNCTION     0.50     2.74    10.39     0  01:15        2.73
  WS6327               JUNCTION     0.39     2.58    10.39     0  01:15        2.57
  WS6329               JUNCTION     0.36     2.52    10.40     0  01:15        2.51
  WS6332               JUNCTION     0.31     2.53    10.56     0  01:12        2.45
  WS6158               JUNCTION     0.21     2.05    10.59     0  01:14        2.01
  WS6335               JUNCTION     0.31     2.60    10.67     0  01:12        2.56
  WS6338               JUNCTION     0.27     2.55    10.75     0  01:12        2.55
  WS6340               JUNCTION     0.24     2.50    10.84     0  01:12        2.50
  WS6342               JUNCTION     0.19     2.50    11.10     0  01:12        2.25
  WS6135               JUNCTION     0.65     2.89    10.39     0  01:15        2.88
  WS6396               JUNCTION     0.41     2.02     9.57     0  01:15        2.01
  WS6399               JUNCTION     0.25     1.37     8.80     0  01:15        1.36
  WS02003082           JUNCTION     1.19     1.93     7.00     0  01:23        1.93
  WS02003077           JUNCTION     0.40     0.84     5.85     0  01:15        0.84
  WS02003080           JUNCTION     0.81     1.30     6.24     0  01:15        1.30
  WS02003083           JUNCTION     1.51     2.41     7.44     0  01:15        2.40
  WS02003084           JUNCTION     1.62     2.60     7.70     0  01:22        2.59
  WS02003085           JUNCTION     1.68     2.72     7.89     0  01:23        2.71
  WS02003086           JUNCTION     1.88     3.02     8.22     0  01:22        3.02
  WS02003087           JUNCTION     2.10     3.36     8.57     0  01:23        3.35
  WS02003088           JUNCTION     2.25     4.14     9.43     0  00:00        4.07
  WS02003089           JUNCTION     2.33     4.34     9.80     0  00:00        4.02
  WS02003090           JUNCTION     2.51     4.06     9.49     0  01:25        4.05
  WS02003081           JUNCTION     0.98     1.61     6.66     0  01:14        1.60
  WS02003122           JUNCTION     1.97     3.11     9.48     0  01:20        3.10
  WS02003187           JUNCTION     2.00     3.11     9.44     0  01:09        3.11
  WS02003188           JUNCTION     2.00     2.97     9.23     0  01:10        2.97
  WS02003190           JUNCTION     2.00     2.84     9.04     0  00:48        2.84
  WS02003193           JUNCTION     1.97     2.85     9.09     0  00:48        2.85
  WS02003195           JUNCTION     1.97     2.93     9.18     0  00:48        2.93
  WS02003196           JUNCTION     2.06     3.13     9.31     0  01:16        3.13
  WS02003198           JUNCTION     2.07     3.23     9.41     0  01:15        3.21
  WS02003200           JUNCTION     1.80     2.97     9.40     0  00:47        2.94
  WS02003201           JUNCTION     2.04     3.22     9.36     0  00:47        3.22
  WS02003202           JUNCTION     2.15     4.17    10.23     0  00:00        3.48
  WS02004041           JUNCTION     0.59     0.98     5.34     0  01:15        0.98
  WSA6400              JUNCTION     0.92     2.43     8.27     0  01:15        2.42
  WS6400               JUNCTION     0.35     1.69     8.35     0  01:15        1.68
  WSF208               JUNCTION     0.64     1.95     8.04     0  01:15        1.94
  WSF207               JUNCTION     0.54     1.69     7.83     0  01:15        1.68
  WSF206               JUNCTION     0.62     1.75     7.68     0  01:15        1.74
  WSF205               JUNCTION     0.57     1.62     7.52     0  01:15        1.61
  WSF204               JUNCTION     1.16     2.18     7.33     0  01:15        2.16
  WSF203               JUNCTION     0.56     1.37     7.08     0  01:15        1.36
  WSF202               JUNCTION     0.48     1.20     6.92     0  01:15        1.18
  WSF201               JUNCTION     0.42     1.05     6.77     0  01:15        1.03
  WSF200               JUNCTION     0.55     1.45     6.69     0  01:15        1.45
  HS02004901           JUNCTION     0.55     1.42    11.24     0  01:06        1.42
  HS02004881           JUNCTION     0.39     2.15    11.18     0  01:09        1.94
  HS02004876           JUNCTION     0.51     2.19    11.22     0  01:17        2.19
  HS02004870           JUNCTION     0.42     2.10    11.39     0  01:09        2.05
  HS02004862           JUNCTION     0.43     2.00    11.38     0  01:09        2.00
  HS02004856           JUNCTION     0.47     2.07    11.50     0  01:09        2.04
  HS02004852           JUNCTION     0.41     2.06    11.57     0  01:09        1.98
  HS02004848           JUNCTION     0.39     2.01    11.62     0  01:09        1.92
  HS02004842           JUNCTION     0.71     2.22    11.49     0  01:09        2.22
  HS02004837           JUNCTION     0.41     1.96    11.54     0  01:09        1.92
  HS02004830           JUNCTION     0.47     2.03    11.49     0  01:09        1.99
  HS02004824           JUNCTION     0.49     2.01    11.41     0  01:14        2.01
  HS02004817           JUNCTION     0.98     2.42    11.27     0  01:09        2.41
  HS02004807           JUNCTION     0.65     1.92    11.09     0  01:09        1.92
  HS02004802           JUNCTION     0.67     1.80    10.93     0  01:13        1.80
  HS02004799           JUNCTION     0.73     1.76    10.97     0  01:09        1.76
  HS02004792           JUNCTION     0.53     1.60    11.12     0  01:07        1.60
  HS02004788           JUNCTION     0.40     1.42    11.32     0  01:07        1.39
  HS02004785           JUNCTION     0.45     1.49    11.39     0  01:07        1.37
  HS02004777           JUNCTION     0.57     1.48    11.28     0  01:06        1.47
  HS02004770           JUNCTION     0.55     1.42    11.25     0  01:06        1.42
  HS02004480           JUNCTION     0.64     1.67    10.91     0  01:09        1.63
  HS02004479           JUNCTION     0.68     1.69    10.89     0  01:09        1.67
  HS02004478           JUNCTION     0.55     1.59    10.82     0  01:13        1.58
  HS02004053           JUNCTION     0.22     1.90    10.67     0  01:13        1.09
  HS02004052           JUNCTION     0.28     1.50    11.15     0  01:13        1.38
  HS02004049           JUNCTION     0.17     1.10    11.78     0  01:13        0.86
  HS02004048           JUNCTION     0.37     1.70    12.60     0  01:12        1.70
  HS02004046           JUNCTION     0.40     1.80    13.52     0  01:15        1.80
  HS02004043           JUNCTION     0.21     2.24    14.93     0  01:15        2.24
  HS02004041           JUNCTION     0.13     1.99    17.43     0  01:15        1.55
  HS02004038           JUNCTION     0.10     0.48    19.16     0  01:17        0.48
  HS02004036           JUNCTION     0.00     0.00    22.47     0  01:28        0.00
  HS02004034           JUNCTION     0.00     0.00    26.84     0  01:25        0.00
  HS02004028           JUNCTION     0.15     0.51    37.36     0  01:12        0.51
  HS02004027           JUNCTION     0.12     0.34    36.47     0  01:12        0.34
  HS02004026           JUNCTION     0.12     0.35    35.75     0  01:12        0.34
  HS02004024           JUNCTION     0.12     0.41    34.63     0  01:12        0.40
  HS02004022           JUNCTION     0.17     0.80    33.84     0  01:12        0.80
  HS02004021           JUNCTION     0.20     0.81    32.54     0  01:09        0.81
  HS02004019           JUNCTION     0.25     0.80    31.76     0  01:08        0.80
  HS02004018           JUNCTION     0.17     0.60    33.81     0  01:12        0.60
  HS02004017           JUNCTION     0.16     0.53    34.37     0  01:12        0.53
  HS02004013           JUNCTION     0.11     0.72    35.86     0  01:15        0.72
  HS02004010           JUNCTION     0.04     0.21    38.07     0  01:17        0.21
  HS02003174           JUNCTION     0.15     0.51     6.04     0  01:18        0.51
  HS02003171           JUNCTION     0.16     0.57     6.25     0  01:17        0.57
  HS02003170           JUNCTION     0.20     0.52     6.97     0  01:17        0.52
  HS02003168           JUNCTION     0.10     0.35     6.85     0  01:17        0.35
  HS02003166           JUNCTION     0.19     0.53     7.01     0  01:15        0.52
  HS02003162           JUNCTION     0.16     0.42    30.67     0  01:09        0.42
  HS02003160           JUNCTION     0.12     0.40    28.46     0  01:16        0.40
  HS02003150           JUNCTION     0.13     0.43    26.45     0  01:16        0.43
  HS02003148           JUNCTION     0.15     0.57    22.31     0  01:16        0.57
  HS02003145           JUNCTION     0.19     0.81    14.68     0  01:13        0.81
  HS02003143           JUNCTION     0.27     0.80    13.27     0  01:04        0.80
  HS02003138           JUNCTION     0.38     0.70     7.19     0  02:12        0.70
  HS02003136           JUNCTION     1.07     2.28    10.00     0  00:00        2.28
  HS02003125           JUNCTION     1.26     2.36     9.81     0  00:50        2.33
  HS02003122           JUNCTION     1.30     2.49     9.92     0  01:16        2.48
  HS02003119           JUNCTION     1.09     2.34    10.06     0  01:16        2.33
  HS02003116           JUNCTION     0.82     2.26    10.38     0  00:50        1.96
  HS02003111           JUNCTION     0.44     1.11    10.12     0  01:16        1.09
  HS02003108           JUNCTION     0.34     1.34    10.45     0  01:16        1.09
  HS02003100           JUNCTION     0.23     1.47    10.70     0  01:16        1.05
  HS02003088           JUNCTION     0.18     1.62    10.91     0  01:16        1.08
  HS02003084           JUNCTION     0.07     1.63    11.06     0  01:16        1.11
  HS02003079           JUNCTION     0.05     1.60    11.11     0  01:16        1.08
  HS02003077           JUNCTION     0.02     1.48    11.22     0  01:16        0.62
  HS02003065           JUNCTION     0.49     1.68    10.91     0  01:17        1.67
  HS02003056           JUNCTION     0.50     1.77    10.72     0  01:15        1.77
  HS02003053           JUNCTION     0.34     1.66    10.96     0  01:12        1.66
  HS02003042           JUNCTION     0.25     1.61    11.27     0  01:12        1.45
  HS02003039           JUNCTION     0.28     1.82    11.47     0  01:12        1.54
  HS02003036           JUNCTION     0.16     1.41    11.47     0  01:12        1.33
  HS02003028           JUNCTION     0.24     1.40    11.14     0  01:11        1.40
  HS02003021           JUNCTION     0.25     1.55    10.92     0  01:11        1.49
  HS02003018           JUNCTION     0.26     1.48    10.69     0  01:11        1.48
  HS02003017           JUNCTION     0.26     1.48    10.64     0  01:11        1.48
  HS02003013           JUNCTION     0.26     1.47    10.52     0  01:11        1.42
  HS02003010           JUNCTION     0.28     1.43    10.23     0  01:11        1.30
  HS02003007           JUNCTION     0.24     1.30     9.92     0  01:11        1.09
  HS02003004           JUNCTION     0.32     1.05     9.37     0  01:11        0.98
  HS02003001           JUNCTION     0.09     0.32     8.61     0  01:17        0.32
  YS02001738           JUNCTION     0.00     0.00     8.89     0  00:00        0.00
  YS02001739           JUNCTION     0.00     0.00     8.37     0  00:00        0.00
  YS02001742           JUNCTION     0.00     0.00     8.49     0  00:00        0.00
  YS02001745           JUNCTION     0.12     0.68     8.20     0  01:17        0.62
  YS02001748           JUNCTION     0.15     2.27     9.35     0  01:17        1.12
  YS02001751           JUNCTION     0.16     2.20     9.08     0  01:16        1.26
  YS02001754           JUNCTION     0.19     2.20     8.81     0  01:15        2.20
  YS02001762           JUNCTION     0.35     2.15     8.55     0  01:15        2.15
  YS02001765           JUNCTION     0.33     2.10     8.55     0  01:15        2.09
  YS02001767           JUNCTION     0.35     2.03     8.52     0  01:15        2.02
  YS02001770           JUNCTION     0.40     1.95     8.44     0  01:15        1.95
  YS02001774           JUNCTION     0.47     2.05     8.47     0  01:15        2.00
  YS02001779           JUNCTION     0.23     1.68     8.37     0  01:15        1.68
  YS02001882           JUNCTION     0.60     1.68     8.40     0  01:16        1.68
  YS02001884           JUNCTION     0.69     1.78     8.40     0  01:16        1.78
  YS02001759           JUNCTION     0.35     2.21     8.57     0  01:15        2.21
  YS02001887           JUNCTION     0.77     1.86     8.40     0  01:16        1.86
  YS02001890           JUNCTION     0.80     1.81     8.32     0  01:10        1.81
  YS02001898           JUNCTION     0.57     1.58     8.31     0  01:10        1.56
  YS02001901           JUNCTION     0.68     1.69     8.29     0  01:10        1.67
  YS02001904           JUNCTION     0.66     1.65     8.28     0  01:10        1.63
  YS02001907           JUNCTION     0.98     1.96     8.25     0  01:10        1.96
  YS02001910           JUNCTION     0.80     2.01     8.52     0  01:17        2.01
  YS02001915           JUNCTION     0.62     2.00     8.72     0  01:16        2.00
  YS02001918           JUNCTION     0.38     1.81     8.88     0  01:12        1.81
  YS02001920           JUNCTION     0.48     2.07     9.08     0  01:16        2.01
  YS02001923           JUNCTION     0.32     2.03     9.29     0  01:12        1.90
  YS02001926           JUNCTION     0.35     1.90     9.35     0  01:12        1.85
  YS02001929           JUNCTION     0.23     1.78     9.47     0  01:12        1.76
  YS02001932           JUNCTION     0.14     1.77     9.57     0  01:16        1.77
  YS02001935           JUNCTION     0.11     1.75     9.68     0  01:16        1.63
  YS02001757           JUNCTION     0.32     2.10     8.36     0  01:15        2.10
  YS02001895           JUNCTION     0.56     1.57     8.32     0  01:10        1.56
  YS02005679           JUNCTION     0.00     0.01    10.25     0  01:16        0.01
  YS02005559           JUNCTION     0.08     0.24    10.19     0  01:18        0.24
  YS02005651           JUNCTION     0.05     0.20    10.97     0  01:17        0.20
  YS02005670           JUNCTION     0.06     0.23    10.68     0  01:17        0.23
  YS02005547           JUNCTION     0.04     0.16    10.70     0  01:16        0.16
  YS02005549           JUNCTION     0.06     0.26    11.17     0  01:16        0.25
  YS02005550           JUNCTION     0.08     0.47    11.09     0  01:15        0.42
  YS02005551           JUNCTION     0.04     0.16    10.53     0  01:17        0.16
  YS02005553           JUNCTION     0.09     0.45    10.81     0  01:16        0.42
  YS02005554           JUNCTION     0.05     0.15    10.39     0  01:18        0.15
  YS02005556           JUNCTION     0.10     0.37    10.42     0  01:17        0.33
  YS02005557           JUNCTION     0.05     0.15    10.12     0  01:18        0.15
  YS02005560           JUNCTION     0.06     0.17     9.91     0  01:18        0.17
  YS02005562           JUNCTION     0.09     0.27    10.00     0  01:16        0.27
  YS02005563           JUNCTION     0.05     0.15     9.81     0  01:17        0.15
  YS02005565           JUNCTION     0.08     0.24     9.95     0  01:18        0.24
  YS02005566           JUNCTION     0.07     0.19     9.59     0  01:18        0.19
  YS02005568           JUNCTION     0.11     0.48     9.98     0  01:15        0.43
  YS02005569           JUNCTION     0.08     0.23     9.55     0  01:18        0.23
  YS02005598           JUNCTION     0.16     1.07    10.91     0  01:11        1.07
  YS02005600           JUNCTION     0.15     1.02    10.68     0  01:12        1.02
  YS02005602           JUNCTION     0.33     2.15    10.43     0  01:12        2.15
  YS02005603           JUNCTION     0.11     0.99     9.11     0  01:12        0.58
  YS02005609           JUNCTION     0.06     0.25     9.15     0  01:17        0.25
  YS02005653           JUNCTION     0.10     0.87    11.84     0  01:15        0.87
  YS02005654           JUNCTION     0.10     0.65    11.41     0  01:16        0.65
  YS02005655           JUNCTION     0.04     0.15    10.78     0  01:15        0.15
  YS02005595           JUNCTION     0.23     1.36    11.04     0  01:09        1.36
  YS02005658           JUNCTION     0.08     0.57    11.47     0  01:17        0.56
  YS02005659           JUNCTION     0.04     0.16    10.82     0  01:17        0.16
  YS02005661           JUNCTION     0.10     0.76    11.47     0  01:17        0.76
  YS02005662           JUNCTION     0.04     0.15    10.77     0  01:17        0.15
  YS02005664           JUNCTION     0.11     0.68    11.26     0  01:17        0.67
  YS02005665           JUNCTION     0.04     0.13    10.69     0  01:17        0.13
  YS02005668           JUNCTION     0.04     0.15    10.31     0  01:17        0.15
  YS02005667           JUNCTION     0.25     0.96    10.98     0  01:16        0.95
  YS02005571           JUNCTION     0.13     0.71    10.19     0  01:18        0.61
  YS02005572           JUNCTION     0.09     0.46     9.81     0  01:18        0.35
  YS02005576           JUNCTION     0.09     0.44    10.19     0  01:16        0.40
  YS02005577           JUNCTION     0.08     0.25     9.73     0  01:18        0.25
  YS02005579           JUNCTION     0.22     1.12    10.74     0  01:15        1.12
  YS02005580           JUNCTION     0.14     0.91    10.44     0  01:15        0.69
  YS02005582           JUNCTION     0.22     0.86    10.94     0  01:13        0.86
  YS02005583           JUNCTION     0.12     0.88    10.88     0  01:13        0.41
  YS02005612           JUNCTION     0.36     1.59     9.72     0  01:15        1.59
  YS02005615           JUNCTION     0.04     0.16    11.65     0  01:16        0.16
  YS02005616           JUNCTION     0.03     0.13    10.95     0  01:16        0.12
  YS02005618           JUNCTION     0.06     0.27    11.13     0  01:16        0.27
  YS02005619           JUNCTION     0.04     0.15    10.70     0  01:16        0.15
  YS02005621           JUNCTION     0.07     0.45    11.56     0  01:16        0.33
  YS02005622           JUNCTION     0.03     0.12    11.08     0  01:16        0.12
  YS02005625           JUNCTION     0.03     0.11    11.12     0  01:16        0.11
  YS02005627           JUNCTION     0.08     0.46    11.39     0  01:15        0.45
  YS02005628           JUNCTION     0.03     0.12    11.02     0  01:16        0.11
  YS02005630           JUNCTION     0.08     0.58    11.65     0  01:15        0.48
  YS02005631           JUNCTION     0.04     0.14    11.01     0  01:17        0.14
  YS02005633           JUNCTION     0.07     0.49    11.62     0  01:15        0.48
  YS02005634           JUNCTION     0.04     0.15    10.98     0  01:17        0.15
  YS02005636           JUNCTION     0.08     0.64    11.63     0  01:17        0.63
  YS02005637           JUNCTION     0.04     0.17    10.93     0  01:17        0.17
  YS02005639           JUNCTION     0.08     0.52    11.15     0  01:17        0.52
  YS02005640           JUNCTION     0.04     0.17    10.50     0  01:17        0.17
  YS02005642           JUNCTION     0.06     0.24    11.07     0  01:17        0.24
  YS02005644           JUNCTION     0.11     0.87    11.98     0  01:15        0.87
  YS02005645           JUNCTION     0.06     0.22    11.03     0  01:15        0.22
  YS02005647           JUNCTION     0.17     1.03    11.92     0  01:14        1.03
  YS02005648           JUNCTION     0.07     0.23    11.02     0  01:15        0.23
  YS02005650           JUNCTION     0.11     0.88    11.77     0  01:17        0.87
  YS02005671           JUNCTION     0.03     0.11    10.33     0  01:16        0.11
  YS02005673           JUNCTION     0.06     0.25    10.60     0  01:17        0.25
  YS02005674           JUNCTION     0.04     0.15    10.04     0  01:17        0.15
  YS02005676           JUNCTION     0.00     0.00    10.25     0  01:16        0.00
  YS02005680           JUNCTION     0.04     0.15    10.25     0  01:17        0.15
  YS02005682           JUNCTION     0.00     0.00    10.06     0  00:00        0.00
  YS02005683           JUNCTION     0.03     0.09     9.98     0  01:17        0.09
  YS02005376           JUNCTION     0.52     1.01    11.10     0  00:50        1.01
  YS02005378           JUNCTION     0.99     1.62    11.14     0  01:26        1.62
  YS02005381           JUNCTION     0.87     1.57    11.20     0  00:50        1.57
  YS02005624           JUNCTION     0.20     0.55    11.44     0  01:16        0.55
  YS02005384           JUNCTION     0.28     0.71    10.37     0  00:50        0.53
  YS02005677           JUNCTION     0.04     0.17    10.25     0  01:17        0.17
  YSB1105              JUNCTION     0.23     1.43    10.92     0  01:17        0.76
  YSB1106              JUNCTION     0.21     1.58    11.41     0  01:14        0.88
  YSB1109              JUNCTION     0.26     1.60    11.54     0  01:17        1.21
  YSB1112              JUNCTION     0.26     1.84    11.97     0  01:17        1.44
  YSB1115              JUNCTION     0.24     1.90    12.20     0  01:14        1.41
  YSB1118              JUNCTION     0.25     1.80    12.34     0  01:14        1.50
  YSB1121              JUNCTION     0.30     1.70    12.37     0  01:14        1.70
  YSB1124              JUNCTION     0.18     1.60    12.43     0  01:14        1.55
  YSB1128              JUNCTION     0.30     1.85    12.43     0  01:07        1.67
  YSB1132              JUNCTION     0.33     1.90    12.35     0  01:07        1.74
  YSB1228              JUNCTION     0.04     0.17    11.02     0  01:16        0.17
  YSB1202              JUNCTION     0.62     1.50    12.39     0  01:04        1.46
  YSB1135              JUNCTION     0.41     2.00    12.26     0  01:07        1.87
  YSB1138              JUNCTION     0.50     1.90    12.07     0  01:07        1.90
  YSB1141              JUNCTION     0.53     2.00    11.83     0  01:07        1.89
  YSB1145              JUNCTION     0.53     2.00    11.69     0  01:07        1.85
  YSB1148              JUNCTION     0.57     2.00    11.50     0  01:07        1.89
  YSB1151              JUNCTION     0.75     2.08    11.31     0  01:07        2.00
  YSB1154              JUNCTION     0.90     2.10    11.16     0  01:07        2.10
  YSB1198              JUNCTION     0.14     1.60    12.39     0  01:09        1.17
  YSB1192              JUNCTION     0.27     1.90    12.17     0  01:08        1.69
  YSB6556              JUNCTION     0.75     1.80    10.97     0  01:07        1.80
  YSB1205              JUNCTION     0.78     1.65    12.35     0  01:04        1.65
  YSB1209              JUNCTION     0.78     1.65    12.22     0  01:12        1.65
  YSB1212              JUNCTION     0.70     1.60    12.13     0  01:13        1.60
  YSB1215              JUNCTION     0.71     1.69    12.04     0  01:35        1.69
  YSB1218              JUNCTION     0.73     1.75    11.94     0  01:13        1.75
  YSB1221              JUNCTION     0.70     1.81    11.78     0  01:17        1.59
  YSB1224              JUNCTION     0.64     1.76    11.61     0  01:17        1.34
  YSB1195              JUNCTION     0.24     1.90    12.28     0  01:08        1.59
  YSB1189              JUNCTION     0.36     1.80    11.96     0  01:08        1.80
  YSB1186              JUNCTION     0.39     1.93    11.80     0  01:09        1.74
  YSB1183              JUNCTION     0.48     2.05    11.64     0  01:08        1.88
  YSB1180              JUNCTION     0.50     1.95    11.46     0  01:08        1.83
  YSB1177              JUNCTION     0.75     2.05    11.24     0  01:08        2.01
  YSB1174              JUNCTION     0.81     1.95    11.06     0  01:13        1.95
  YSB1171              JUNCTION     0.99     1.95    10.85     0  01:07        1.95
  YS02006553           JUNCTION     0.98     2.00     8.28     0  01:16        1.99
  YS02006561           JUNCTION     0.31     1.09     7.75     0  01:10        0.93
  YS02006562           JUNCTION     0.75     1.81     8.32     0  01:15        1.81
  YS02006556           JUNCTION     0.95     2.00     8.31     0  01:15        1.99
  YS02006558           JUNCTION     0.99     2.06     8.32     0  01:15        2.05
  YS6132               JUNCTION     0.44     3.17    10.49     0  01:19        1.92
  YS6137               JUNCTION     0.23     2.76    10.55     0  01:22        1.83
  YS6189               JUNCTION     0.32     2.80    10.59     0  01:19        2.09
  YS6184               JUNCTION     0.32     2.65    10.54     0  01:19        2.30
  YS6179               JUNCTION     0.27     2.60    10.58     0  01:19        2.27
  YS6176               JUNCTION     0.21     2.39    10.59     0  01:19        2.07
  YS6171               JUNCTION     0.22     2.10    10.51     0  01:15        2.00
  YS6168               JUNCTION     0.24     2.00    10.51     0  01:15        2.00
  YS6164               JUNCTION     0.09     1.90    10.63     0  01:15        1.90
  YS6162               JUNCTION     0.15     2.10    10.75     0  01:15        1.98
  YS6187               JUNCTION     0.36     2.75    10.53     0  01:19        2.15
  YS6363               JUNCTION     0.26     3.05    10.84     0  01:24        2.01
  YS6360               JUNCTION     0.36     2.98    10.78     0  01:22        1.88
  YS6354               JUNCTION     0.34     2.60    10.75     0  01:19        2.20
  YS6351               JUNCTION     0.40     2.50    10.71     0  01:15        2.38
  YS6350               JUNCTION     0.45     2.50    10.72     0  01:14        2.50
  YS6348               JUNCTION     0.40     2.45    10.85     0  01:13        2.45
  YS6344               JUNCTION     0.25     2.37    10.96     0  01:25        2.26
  YS6375               JUNCTION     0.06     0.37     8.80     0  01:17        0.37
  YS6377               JUNCTION     0.12     0.43     8.79     0  01:17        0.43
  YS6381               JUNCTION     0.13     0.51     8.64     0  01:17        0.51
  YS6386               JUNCTION     0.15     0.59     8.57     0  01:17        0.59
  YS6390               JUNCTION     0.37     0.69     8.38     0  01:17        0.69
  YS6394               JUNCTION     0.09     0.29     8.21     0  01:17        0.29
  YS6404               JUNCTION     0.41     3.00    10.23     0  01:14        1.99
  YS6401               JUNCTION     0.13     0.43     7.64     0  01:19        0.42
  YS02004319           JUNCTION     0.23     1.18    20.80     0  01:08        1.18
  YS02004320           JUNCTION     0.00     0.00    22.64     0  01:27        0.00
  YS02004321           JUNCTION     0.00     0.00    26.80     0  01:25        0.00
  YS02004307           JUNCTION     0.13     0.52    11.06     0  01:15        0.51
  YS02004309           JUNCTION     0.53     1.55    13.07     0  00:58        1.55
  YS02004312           JUNCTION     0.34     1.48    14.91     0  01:06        1.48
  YS02004314           JUNCTION     0.26     1.28    16.99     0  01:08        1.28
  YS02004316           JUNCTION     0.26     1.36    19.13     0  01:08        1.36
  YS02001783           JUNCTION     0.49     1.31     7.45     0  01:10        1.26
  YS02001784           JUNCTION     0.49     1.15     7.22     0  01:10        1.13
  YS02001786           JUNCTION     0.40     0.92     6.95     0  01:10        0.88
  YS02001788           JUNCTION     0.29     0.63     6.61     0  01:16        0.63
  YS02001790           JUNCTION     0.34     0.72     6.37     0  01:15        0.72
  YS02001791           JUNCTION     0.21     0.44     5.91     0  01:16        0.44
  YS02001793           JUNCTION     0.11     0.29     5.12     0  01:32        0.28
  YS02003309           JUNCTION     0.44     1.21     9.77     0  00:47        1.04
  YS02003306           JUNCTION     0.52     1.16     9.60     0  00:47        1.16
  YS02003269           JUNCTION     0.12     0.17     7.76     0  01:09        0.17
  YS02003272           JUNCTION     0.30     0.78     8.51     0  00:48        0.58
  YS02003278           JUNCTION     0.57     1.21     9.13     0  01:13        1.21
  YS02003281           JUNCTION     0.61     1.39     9.47     0  01:09        1.39
  YS02003284           JUNCTION     0.70     1.40     9.41     0  01:09        1.40
  YS02003287           JUNCTION     0.65     1.27     9.34     0  00:58        1.27
  YS02003290           JUNCTION     0.53     1.11     9.40     0  01:21        1.10
  YS02003294           JUNCTION     0.67     1.24     9.42     0  00:48        1.24
  YS02003275           JUNCTION     0.43     0.92     8.83     0  01:16        0.92
  YS02003297           JUNCTION     0.65     1.22     9.43     0  00:48        1.22
  YS02003300           JUNCTION     0.59     1.15     9.42     0  00:47        1.15
  YS02003303           JUNCTION     0.58     1.14     9.46     0  00:47        1.14
  YSB1227              JUNCTION     0.01     0.12    11.02     0  01:16        0.11
  CaochengRainPumpOutfall1 OUTFALL      0.00     0.00     6.00     0  00:00        0.00
  JiankangRainPumpOutfall2 OUTFALL      0.00     0.00     6.00     0  00:00        0.00
  JiankangRainPumpOutfall1 OUTFALL      0.00     0.00     6.00     0  00:00        0.00
  CaochengRainPumpOutfall2 OUTFALL      0.00     0.00     6.00     0  00:00        0.00
  YS02005684           OUTFALL      0.03     0.09     8.49     0  01:17        0.09
  YS02005681           OUTFALL      0.04     0.15     9.37     0  01:17        0.15
  YS02005678           OUTFALL      0.04     0.17     8.70     0  01:17        0.17
  YS02005675           OUTFALL      0.04     0.15     8.69     0  01:17        0.15
  YS02005672           OUTFALL      0.03     0.11     8.44     0  01:17        0.11
  YS02005669           OUTFALL      0.04     0.15     8.86     0  01:17        0.15
  YS02005666           OUTFALL      0.04     0.13     8.81     0  01:17        0.13
  YS02005663           OUTFALL      0.04     0.15     8.88     0  01:17        0.15
  YS02005660           OUTFALL      0.04     0.16     8.97     0  01:17        0.16
  YS02005657           OUTFALL      0.00     0.00     8.74     0  00:00        0.00
  YS02005652           OUTFALL      0.05     0.20     8.83     0  01:17        0.20
  YS02005649           OUTFALL      0.07     0.23     8.93     0  01:15        0.23
  YS02005646           OUTFALL      0.06     0.22     8.22     0  01:15        0.22
  YS02005643           OUTFALL      0.06     0.24     8.80     0  01:17        0.24
  YS02005641           OUTFALL      0.04     0.17     8.86     0  01:17        0.17
  YS02005638           OUTFALL      0.04     0.17     8.83     0  01:17        0.17
  YS02005635           OUTFALL      0.04     0.15     8.81     0  01:17        0.15
  YS02005632           OUTFALL      0.04     0.14     8.69     0  01:17        0.14
  YS02005629           OUTFALL      0.03     0.11     8.59     0  01:16        0.11
  YS02005626           OUTFALL      0.03     0.11     8.63     0  01:16        0.11
  YS02005623           OUTFALL      0.03     0.12     8.59     0  01:16        0.12
  YS02005620           OUTFALL      0.04     0.15     8.94     0  01:16        0.15
  YS02005617           OUTFALL      0.03     0.13     8.96     0  01:16        0.12
  YSB1103              OUTFALL      0.23     0.60     8.60     0  01:14        0.60
  YSB1229              OUTFALL      0.04     0.17     8.97     0  01:16        0.17
  YS02005548           OUTFALL      0.04     0.16     9.16     0  01:16        0.16
  YS02005552           OUTFALL      0.04     0.16     8.78     0  01:17        0.16
  YS02005555           OUTFALL      0.05     0.15     8.88     0  01:18        0.15
  YS02005558           OUTFALL      0.05     0.15     8.85     0  01:18        0.15
  YS02005561           OUTFALL      0.06     0.17     8.85     0  01:18        0.17
  YS02005564           OUTFALL      0.05     0.15     8.63     0  01:17        0.15
  YS02005567           OUTFALL      0.07     0.19     8.73     0  01:18        0.19
  YS02005570           OUTFALL      0.08     0.23     8.94     0  01:18        0.23
  YS02005574           OUTFALL      0.09     0.29     9.13     0  01:18        0.29
  YS02005578           OUTFALL      0.08     0.29     9.06     0  01:18        0.29
  WS02005134           OUTFALL      0.00     0.00     8.74     0  00:00        0.00
  YS02005581           OUTFALL      0.10     0.30     9.10     0  01:15        0.30
  YS02005584           OUTFALL      0.10     0.30     9.26     0  01:13        0.30
  YS02005593           OUTFALL      0.19     0.28     9.00     0  01:05        0.28
  YS02005596           OUTFALL      0.11     0.30     8.84     0  01:09        0.30
  YS02005374           OUTFALL      0.10     0.30     8.54     0  01:11        0.30
  YS02005375           OUTFALL      0.10     0.30     8.69     0  01:11        0.30
  YS02005607           OUTFALL      0.09     0.30     7.53     0  01:12        0.30
  YS02005610           OUTFALL      0.06     0.26     8.87     0  01:17        0.25
  YS02005613           OUTFALL      0.11     0.30     8.58     0  01:14        0.30
  HS02003172           OUTFALL      0.15     0.51     5.96     0  01:18        0.51
  YS6395               OUTFALL      0.09     0.29     6.71     0  01:17        0.29
  YS6405               OUTFALL      0.13     0.41     3.86     0  01:17        0.41
  WSC                  OUTFALL      0.55     0.80     5.00     0  00:58        0.80
  JiankangQianchi      STORAGE      2.90     4.21     5.01     0  01:53        4.16
  CaochengTiaoxuchi    STORAGE      0.83     1.41     6.91     0  01:27        1.41
  XierchiQianchi       STORAGE      7.35     8.08     6.08     0  04:04        8.08
  
  
  *******************
  Node Inflow Summary
  *******************
  
  -------------------------------------------------------------------------------------------------
                                  Maximum  Maximum                  Lateral       Total        Flow
                                  Lateral    Total  Time of Max      Inflow      Inflow     Balance
                                   Inflow   Inflow   Occurrence      Volume      Volume       Error
  Node                 Type           LPS      LPS  days hr:min    10^6 ltr    10^6 ltr     Percent
  -------------------------------------------------------------------------------------------------
  WS02001211           JUNCTION      7.35   221.19     0  01:09       0.108        2.65       1.261
  WS02001212           JUNCTION      0.00   230.80     0  01:55           0        2.62       0.598
  WS02001213           JUNCTION      0.00   238.99     0  01:54           0         2.6       0.738
  WS02003069           JUNCTION      0.32  2521.27     0  01:15      0.0047        18.2       0.116
  WS02003072           JUNCTION      0.00  2521.24     0  01:15           0        18.2       0.134
  WS02003073           JUNCTION      1.82  3090.05     0  01:15      0.0267          24       0.056
  WS02003076           JUNCTION      0.00  3090.15     0  01:15           0          24       0.086
  WS02003060           JUNCTION     16.53  2521.10     0  01:15       0.243        18.2       0.108
  WS02003066           JUNCTION      0.00  2304.45     0  01:15           0        15.4       0.018
  WS02003059           JUNCTION      0.00   244.91     0  01:54           0        2.59       1.337
  WS02003115           JUNCTION      0.00   477.10     0  01:32           0        1.42      -0.013
  WS02003116           JUNCTION      0.00   235.65     0  03:11           0        1.76       0.022
  WS02003118           JUNCTION      0.09   235.54     0  03:11    2.65e-06        1.76       0.032
  WS02003215           JUNCTION      0.19  2775.03     0  01:17    2.12e-05        4.09      -0.026
  WS02003110           JUNCTION      0.18   520.25     0  01:17     0.00264       0.787      -0.015
  WS02003111           JUNCTION      1.51   998.68     0  01:17      0.0214        2.05      -0.011
  WS02005155           JUNCTION      0.38   520.08     0  01:17     0.00559       0.773      -0.008
  WS02005154           JUNCTION    519.73   519.73     0  01:17        0.76       0.761       0.065
  WS02005193           JUNCTION      0.51    54.74     0  00:40      0.0017      0.0256       0.319
  WS02005196           JUNCTION      1.04    38.44     0  00:40     0.00387     0.00959       2.219
  WS02003067           JUNCTION      0.00  1875.44     0  01:14           0        12.6       0.051
  WS02004401           JUNCTION      0.00  1105.91     0  02:05           0        10.2       0.150
  WS02004402           JUNCTION      0.00  1105.95     0  02:05           0        10.2       0.149
  WS02004403           JUNCTION      0.00  1106.25     0  02:05           0        10.1       0.137
  WS02004404           JUNCTION      0.16  1106.23     0  02:05     0.00238        10.1       0.107
  WS02004406           JUNCTION      0.00  1106.51     0  02:05           0        10.1       0.265
  WS02004409           JUNCTION      0.24  1820.82     0  01:13    0.000741        13.5       0.063
  WS02004410           JUNCTION      0.00  1875.38     0  01:14           0        13.6       0.078
  WS02004411           JUNCTION      0.00  1875.27     0  01:14           0        12.6       0.092
  WS02004412           JUNCTION      0.00  1875.31     0  01:14           0        12.6       0.108
  WS02004413           JUNCTION      0.00  1875.28     0  01:14           0        12.6       0.169
  WS02004405           JUNCTION      0.19  1107.22     0  02:05     0.00107        10.1       0.157
  WS02006109           JUNCTION      1.95  1308.01     0  00:00      0.0194        11.1       0.127
  WS02006110           JUNCTION      0.38  1105.58     0  02:05    0.000372        10.2      -0.298
  WS02006111           JUNCTION      0.04  1176.04     0  00:00    1.33e-05        10.3      -0.352
  WS02006112           JUNCTION      0.48  2307.30     0  00:00    2.84e-05        10.3       0.051
  WS02006113           JUNCTION      0.12  1105.53     0  02:05    7.68e-05        10.2      -0.409
  WS02006115           JUNCTION      0.00  2155.55     0  00:00           0        10.2       0.087
  WS02006116           JUNCTION      0.39  1105.75     0  02:05     0.00134        10.2       0.066
  WS02006230           JUNCTION     11.35  1026.95     0  01:14       0.155        5.13       0.064
  WS02006231           JUNCTION      1.44   453.40     0  01:14     0.00758        3.39       0.127
  WS02006232           JUNCTION      1.35   453.57     0  01:35     0.00548        3.39       0.233
  WS02006234           JUNCTION      1.02   453.41     0  01:35     0.00442        3.38       0.023
  WS02006235           JUNCTION      1.42   415.18     0  01:16     0.00845        3.51       0.113
  WS02006238           JUNCTION      1.81   415.42     0  02:11     0.00984        3.03       0.002
  WS02006240           JUNCTION      0.00   415.09     0  01:16           0        3.02       0.059
  WS02006242           JUNCTION      2.26   415.15     0  01:16      0.0117        3.02       0.133
  WS02006243           JUNCTION      2.49   278.20     0  02:09      0.0139        2.37       0.017
  WS02006245           JUNCTION      2.42   278.96     0  02:22      0.0112        2.36       0.118
  WS02006247           JUNCTION      0.00   279.09     0  02:20           0        2.36       0.069
  WS02006248           JUNCTION      3.06   339.82     0  02:22     0.00903        2.82       0.030
  WS02006249           JUNCTION      0.09  1392.02     0  01:17    2.64e-06        6.66       0.052
  WS02006239           JUNCTION      1.73   415.23     0  01:16     0.00934        3.02      -0.007
  WS02006251           JUNCTION      1.80  1760.50     0  01:17     0.00915        6.98       0.006
  WS02006252           JUNCTION      0.00   769.02     0  01:17           0        2.38      -0.029
  WS02006253           JUNCTION     59.55  1760.30     0  01:17       0.089        5.62       0.027
  WS02006256           JUNCTION      0.00   300.00     0  00:42           0         2.8       0.010
  WS02004138           JUNCTION      0.00   190.00     0  00:29           0        2.57       0.116
  WS02004139           JUNCTION      0.32   190.32     0  00:33     0.00471        2.57       1.043
  WS02004407           JUNCTION      0.09  1821.06     0  01:13    0.000326        13.5       0.048
  WS02006228           JUNCTION      1.27  1288.65     0  01:14     0.00202          11       0.080
  WS02006229           JUNCTION      2.02  2305.50     0  01:13     0.00562        14.8       0.058
  WS02006280           JUNCTION      0.26  2305.10     0  01:13     0.00109        13.5       0.006
  WS02006284           JUNCTION      0.19  2305.21     0  01:13     0.00145        13.5       0.016
  WS02006287           JUNCTION      0.21  2305.29     0  01:13     0.00012        13.5       0.013
  WS02003091           JUNCTION      0.53  1117.45     0  00:00     0.00151         5.8      -0.811
  WS02003203           JUNCTION      0.31  2264.56     0  00:00    0.000134         8.1      -0.177
  WS6145               JUNCTION      0.32   228.75     0  01:13     0.00102       0.111       0.299
  WS6147               JUNCTION      0.00   228.25     0  01:13           0      0.0999       0.175
  WS6150               JUNCTION      0.21   227.35     0  01:13     0.00136      0.0891       0.371
  WS6152               JUNCTION      0.58   234.44     0  01:13     0.00846      0.0773       0.513
  WS6155               JUNCTION      0.08   227.15     0  01:13     8.4e-05      0.0582       0.387
  WS6156               JUNCTION      0.66   234.71     0  01:13     0.00764      0.0471       0.272
  WS6136               JUNCTION      0.15   702.49     0  01:12    5.02e-05        1.97      -0.001
  WS6140               JUNCTION      0.23   227.97     0  01:13    0.000271       0.132       0.097
  WS6142               JUNCTION      0.24   228.58     0  01:13    0.000358       0.122       0.176
  WS6325               JUNCTION      0.23   116.05     0  01:12    0.000385      0.0983       0.114
  WS6327               JUNCTION      0.19   113.07     0  01:12     0.00104      0.0893       0.127
  WS6329               JUNCTION      0.55   113.84     0  01:12     0.00382      0.0784       0.171
  WS6332               JUNCTION      0.38   114.52     0  01:12     0.00164       0.064       0.159
  WS6158               JUNCTION      1.87   250.94     0  01:14       0.024      0.0286      -0.418
  WS6335               JUNCTION      0.72   115.08     0  01:12     0.00736      0.0512       0.317
  WS6338               JUNCTION      0.44   115.19     0  01:12     0.00228      0.0326       0.156
  WS6340               JUNCTION      0.31   116.39     0  01:12    0.000404      0.0187       0.261
  WS6342               JUNCTION      0.65   115.62     0  01:12     0.00622     0.00918      -1.226
  WS6135               JUNCTION      0.13   702.34     0  01:12    3.79e-05        2.09       0.105
  WS6396               JUNCTION      0.00   547.66     0  01:26           0           2       0.030
  WS6399               JUNCTION      0.06   547.73     0  01:26    0.000264           2       0.009
  WS02003082           JUNCTION      0.52   590.06     0  01:03     0.00296        5.84       0.135
  WS02003077           JUNCTION      0.60   590.64     0  01:03     0.00881        5.83       0.048
  WS02003080           JUNCTION      0.00   590.05     0  01:03           0        5.82       0.032
  WS02003083           JUNCTION      0.00   589.88     0  01:03           0        5.84       0.035
  WS02003084           JUNCTION      0.04   589.96     0  01:03    0.000646        5.84       0.062
  WS02003085           JUNCTION      0.00   589.86     0  01:03           0        5.84      -0.021
  WS02003086           JUNCTION      0.49   647.18     0  00:01     0.00721        5.84       0.077
  WS02003087           JUNCTION      0.00  1079.92     0  00:00           0        5.84       0.051
  WS02003088           JUNCTION      0.55  2146.84     0  00:00     0.00303        5.86       0.088
  WS02003089           JUNCTION      0.27  1590.77     0  00:00    0.000755        5.84      -0.330
  WS02003090           JUNCTION      0.43  1114.71     0  00:00    0.000995        5.81      -0.542
  WS02003081           JUNCTION      0.20   590.06     0  01:03    9.11e-05        5.83       0.115
  WS02003122           JUNCTION      0.00   235.62     0  03:11           0        1.74       0.089
  WS02003187           JUNCTION    718.95   895.93     0  01:17        1.17        2.89       0.130
  WS02003188           JUNCTION      0.49   403.48     0  01:22     0.00232        2.57       0.128
  WS02003190           JUNCTION      0.44   608.63     0  01:22    0.000499        3.67       0.166
  WS02003193           JUNCTION   1172.54  1436.19     0  01:17        1.87        3.66       0.191
  WS02003195           JUNCTION      0.59   314.62     0  00:01     0.00196        2.01       0.229
  WS02003196           JUNCTION      0.00   374.65     0  00:01           0        2.02       0.254
  WS02003198           JUNCTION    350.52   460.80     0  00:01       0.651        2.13       0.337
  WS02003200           JUNCTION      4.23   623.78     0  00:01      0.0575        1.61      -1.374
  WS02003201           JUNCTION      0.13   615.05     0  00:01    0.000168        3.05      -0.521
  WS02003202           JUNCTION      0.04   709.13     0  00:00    0.000166        3.04       0.108
  WS02004041           JUNCTION      0.50  3090.80     0  01:15     0.00734          24       0.026
  WSA6400              JUNCTION      0.00   547.84     0  01:26           0           2       0.150
  WS6400               JUNCTION      0.08   547.65     0  01:26    0.000554           2       0.005
  WSF208               JUNCTION      0.00   547.77     0  01:26           0        1.99       0.062
  WSF207               JUNCTION      1.60   549.36     0  01:26      0.0234        2.99       0.013
  WSF206               JUNCTION      0.00   447.13     0  01:13           0        2.87       0.028
  WSF205               JUNCTION      0.00   447.34     0  01:13           0        2.87       0.075
  WSF204               JUNCTION      0.00   447.47     0  01:13           0        2.87       0.318
  WSF203               JUNCTION      0.00   447.55     0  01:13           0        2.86       0.126
  WSF202               JUNCTION      1.27   448.91     0  01:13      0.0186        2.87       0.069
  WSF201               JUNCTION      0.00   449.30     0  01:13           0        2.87       0.042
  WSF200               JUNCTION      0.00  2306.84     0  01:15           0        15.4       0.015
  HS02004901           JUNCTION      0.19   265.79     0  01:41    0.000305       0.601       0.379
  HS02004881           JUNCTION    226.86  1700.78     0  01:17       0.349         5.5       0.003
  HS02004876           JUNCTION    403.26  1519.62     0  01:24       0.686        5.16       0.042
  HS02004870           JUNCTION    414.23  1277.94     0  01:09       0.662        4.47       0.009
  HS02004862           JUNCTION    422.54  1224.82     0  01:18       0.905           4       0.009
  HS02004856           JUNCTION    309.18  1143.83     0  01:09       0.498         3.1       0.046
  HS02004852           JUNCTION      0.00  1081.13     0  01:09           0        2.61       0.021
  HS02004848           JUNCTION    916.01  1084.87     0  01:09        2.16        3.01       0.016
  HS02004842           JUNCTION      0.10   837.45     0  01:09    3.06e-06         1.3       1.044
  HS02004837           JUNCTION    690.53   835.96     0  01:09        1.24        1.93       0.061
  HS02004830           JUNCTION      0.15   633.15     0  01:08      0.0022         1.5       0.117
  HS02004824           JUNCTION    995.51  1581.90     0  01:19        2.13        3.25       0.028
  HS02004817           JUNCTION      0.75  1196.81     0  01:25     0.00884         2.7       0.646
  HS02004807           JUNCTION    764.34  1960.63     0  01:17        1.21        3.84       0.134
  HS02004802           JUNCTION      0.08  1233.23     0  01:22    2.36e-05        3.36       0.155
  HS02004799           JUNCTION    607.62  1749.71     0  01:17       0.986        8.19       0.058
  HS02004792           JUNCTION   3207.56  4139.58     0  01:17         6.1        10.1       0.009
  HS02004788           JUNCTION    955.84   962.04     0  01:17        1.73        3.97       0.015
  HS02004785           JUNCTION      0.15   602.55     0  01:06      0.0022        2.25       0.075
  HS02004777           JUNCTION      0.38   587.79     0  01:06     0.00157        2.25       0.285
  HS02004770           JUNCTION   2633.44  2660.04     0  01:18        4.67        4.69       0.084
  HS02004480           JUNCTION      0.29  2223.76     0  01:08    0.000745        10.5       0.026
  HS02004479           JUNCTION      0.40   719.01     0  01:08     0.00119        2.81       0.046
  HS02004478           JUNCTION      0.17  2305.37     0  01:13    0.000109        13.5       0.003
  HS02004053           JUNCTION      0.09  1039.78     0  01:13    2.04e-05        3.42      -0.016
  HS02004052           JUNCTION      0.27  1080.14     0  01:13    0.000136        3.42       0.010
  HS02004049           JUNCTION      0.49  1517.83     0  01:13     0.00377        3.92       0.003
  HS02004048           JUNCTION   1609.05  2882.25     0  01:17        2.34        4.51       0.005
  HS02004046           JUNCTION      0.95  1399.56     0  01:18      0.0117        2.19       0.056
  HS02004043           JUNCTION      1.59  1512.88     0  01:17       0.022        2.19      -0.000
  HS02004041           JUNCTION      0.11  1511.42     0  01:17     0.00113        2.17      -0.001
  HS02004038           JUNCTION   1516.18  1516.18     0  01:17        2.17        2.17       0.005
  HS02004036           JUNCTION      0.00     0.05     0  01:25           0    4.09e-06       4.087 ltr
  HS02004034           JUNCTION      0.07     0.07     0  01:24    4.12e-06    4.12e-06       0.035 ltr
  HS02004028           JUNCTION   1364.90  1364.90     0  01:16        1.88        1.88      -0.001
  HS02004027           JUNCTION      0.17   616.36     0  01:12     3.6e-05        1.61       0.001
  HS02004026           JUNCTION      0.12   617.24     0  01:12    2.37e-05        1.61       0.001
  HS02004024           JUNCTION      0.00   614.92     0  01:12           0        1.61       0.001
  HS02004022           JUNCTION    518.64  1118.79     0  01:17        0.75        2.37      -0.001
  HS02004021           JUNCTION      0.29   801.15     0  01:23     0.00334        2.23       0.000
  HS02004019           JUNCTION      0.12  1523.30     0  01:11    7.05e-06        4.84       0.001
  HS02004018           JUNCTION    288.52  1071.68     0  01:16       0.361        2.85      -0.002
  HS02004017           JUNCTION      0.08  1593.53     0  01:15     2.5e-06        2.94       0.001
  HS02004013           JUNCTION   1307.23  1936.02     0  01:17        2.14        3.02      -0.001
  HS02004010           JUNCTION    628.90   628.90     0  01:17       0.882       0.882       0.001
  HS02003174           JUNCTION      0.00  2957.86     0  01:18           0        6.99       0.020
  HS02003171           JUNCTION    363.20  2847.83     0  01:17       0.622        6.16       0.038
  HS02003170           JUNCTION      0.00  2487.29     0  01:17           0        5.54       0.035
  HS02003168           JUNCTION      0.00  2481.20     0  01:17           0        5.54       0.018
  HS02003166           JUNCTION    903.96  2473.81     0  01:18        1.67        5.54       0.014
  HS02003162           JUNCTION      0.17  1063.09     0  01:17    7.66e-05         4.3       0.002
  HS02003160           JUNCTION    821.04  1885.52     0  01:16        1.11        5.41       0.002
  HS02003150           JUNCTION      0.19  1882.36     0  01:16    0.000428        5.41       0.001
  HS02003148           JUNCTION    905.69  2781.70     0  01:16        1.21        6.62       0.002
  HS02003145           JUNCTION   1301.18  4060.73     0  01:16        1.89         8.5      -0.024
  HS02003143           JUNCTION      0.25  2649.34     0  01:13     0.00264        8.01      -0.017
  HS02003138           JUNCTION      0.38     0.38     0  01:27    0.000793    0.000793       0.000
  HS02003136           JUNCTION    521.04  2645.16     0  01:17       0.795        8.49      -0.262
  HS02003125           JUNCTION      0.41  2775.02     0  01:17     0.00602        3.91       0.016
  HS02003122           JUNCTION    499.13  2774.09     0  01:17       0.799        3.89       0.012
  HS02003119           JUNCTION   1404.23  2278.01     0  01:17        1.97        3.08      -0.021
  HS02003116           JUNCTION      0.06   906.72     0  01:17    0.000807        1.07       0.016
  HS02003111           JUNCTION      0.00   790.76     0  01:16           0        1.04       0.366
  HS02003108           JUNCTION      0.00   789.65     0  01:17           0        1.05       0.577
  HS02003100           JUNCTION      0.00   789.50     0  01:17           0        1.05       0.269
  HS02003088           JUNCTION    766.46   789.53     0  01:17        1.05        1.09       0.128
  HS02003084           JUNCTION      0.03   242.65     0  01:15     0.00047      0.0749       0.167
  HS02003079           JUNCTION      0.15   255.70     0  01:15     0.00216      0.0421       0.347
  HS02003077           JUNCTION      0.00   225.90     0  01:16           0      0.0116      -0.953
  HS02003065           JUNCTION      0.28  1189.35     0  01:04    0.000252        5.92      -0.004
  HS02003056           JUNCTION      0.00  2124.57     0  01:18           0        7.67       0.010
  HS02003053           JUNCTION    514.74  1188.10     0  01:17       0.792        1.77       0.015
  HS02003042           JUNCTION      0.00   673.44     0  01:17           0       0.979       0.051
  HS02003039           JUNCTION      0.00   673.20     0  01:17           0       0.965       0.042
  HS02003036           JUNCTION   1349.89  1349.89     0  01:17        2.07        2.07       0.007
[...]
  HS02004870HS02004876        0.80      0.80      0.90      0.01         0.01
  HS02004049HS02004052        0.22      0.22      0.25      0.01         0.01
  HS02004048HS02004049        0.34      0.47      0.34      0.54         0.34
  HS02004046HS02004048        0.23      0.23      0.47      0.01         0.01
  HS02004043HS02004046        0.19      0.19      0.26      0.08         0.08
  HS02004041HS02004043        0.06      0.06      0.18      0.01         0.01
  HS02004038HS02004041        0.01      0.01      0.06      0.01         0.01
  HS02004028HS02004027        0.01      0.21      0.01      0.23         0.01
  HS02003143HS02003065        0.69      0.69      0.95      0.01         0.01
  HS02004842HS02004848        0.71      0.71      0.96      0.01         0.01
  HS02004837HS02004842        0.76      0.76      0.96      0.01         0.01
  HS02004830HS02004837        0.76      0.76      0.81      0.01         0.01
  HS02004824HS02004830        0.81      0.81      0.86      0.01         0.01
  HS02004817HS02004824        0.86      0.86      2.06      0.01         0.01
  HS02004770HS02004777        0.87      0.87      0.88      0.01         0.01
  HS02004799HS02004480        1.06      1.06      1.17      1.18         0.01
  HS02004792HS02004799        0.99      0.99      1.17      0.01         0.01
  HS02004788HS02004792        0.81      0.81      0.99      0.01         0.01
  HS02004785HS02004788        0.81      0.83      0.81      1.90         0.67
  HS02004777HS02004785        0.83      0.83      0.88      0.01         0.01
  HS02004480HS02004478        0.98      1.06      0.98      2.72         0.98
  HS02004479HS02004480        1.07      1.07      1.11      0.01         0.01
  HS02003013HS02003010        0.45      0.45      0.50      0.30         0.30
  HS02003010HS02003007        0.43      0.44      0.45      0.48         0.43
  HS02003007HS02003004        0.45      0.45      0.53      0.26         0.26
  HS02003004HS02003001        0.01      0.53      0.01      1.29         0.01
  HS02003065HS02003056        0.93      0.93      1.11      0.01         0.01
  HS02003042HS02003053        0.38      0.38      0.88      0.01         0.01
  HS02003028HS02003021        0.31      0.31      0.39      0.01         0.01
  HS02003021HS02003018        0.42      0.42      0.43      0.16         0.17
  HS02003018HS02003017        0.43      0.43      0.44      0.09         0.08
  HS02003017HS02003013        0.44      0.44      0.45      0.36         0.35
  HS02004862HS02004870        0.78      0.78      0.80      0.28         0.27
  HS02004848HS02004852        0.71      0.71      0.74      0.03         0.01
  HS02004856HS02004862        0.72      0.72      0.78      0.01         0.01
  HS02004852HS02004856        0.74      0.74      0.77      0.02         0.01
  HS02004024HS02004022        0.01      0.01      0.26      0.01         0.01
  HS02004022HS02004021        0.26      0.26      0.37      0.01         0.01
  HS02004021HS02004019        0.37      0.37      0.48      0.29         0.30
  HS02004019HS02003162        0.01      0.48      0.01      0.52         0.01
  HS02004052HS02004053        0.24      0.25      0.24      0.26         0.24
  HS02003122HS02003125        2.31      2.31      2.32      0.23         0.26
  HS02003119HS02003122        2.23      2.23      2.33      0.01         0.01
  HS02003116HS02003119        1.49      1.49      2.21      0.01         0.01
  HS02003111HS02003116        0.01      0.01      1.57      0.01         0.01
  HS02004018HS02004019        0.30      0.30      0.48      0.01         0.01
  HS02003056HS02003136        0.96      0.96      2.22      0.01         0.01
  HS02004017HS02004018        0.28      0.28      0.30      0.01         0.01
  HS02004013HS02004017        0.10      0.10      0.28      0.11         0.10
  HS02004010HS02004013        0.01      0.01      0.10      0.01         0.01
  HS02004802HS02004478        1.00      1.00      1.08      0.27         0.01
  HS02004478WS02006287        0.84      0.84      1.06      0.01         0.01
  HS02003079HS02003084        0.04      0.04      0.05      0.01         0.01
  HS02003148HS02003145        0.01      0.01      0.20      0.06         0.01
  HS02003145HS02003143        0.20      0.20      0.66      0.19         0.17
  HS02003136WS02003203        2.28      2.28      2.56      0.01         0.01
  HS02003084HS02003088        0.05      0.05      0.09      0.01         0.01
  HS02003077HS02003079        0.01      0.01      0.04      0.01         0.01
  HS02003108HS02003111        0.23      0.23      0.47      0.02         0.02
  HS02003100HS02003108        0.12      0.12      0.23      0.01         0.01
  HS02003088HS02003100        0.10      0.10      0.12      0.05         0.04
  HS02004817HS02004807        1.05      1.05      2.06      0.01         0.01
  HS02004807HS02004802        1.05      1.05      1.07      0.44         0.45
  HS02003053HS02003056        0.88      0.88      1.11      0.01         0.01
  HS02003039HS02003042        0.45      0.46      0.51      0.30         0.03
  HS02003036HS02003039        0.25      0.25      0.30      0.01         0.01
  YS02001759YS02001757        0.22      0.22      0.23      0.22         0.18
  YS02001762YS02001759        0.22      0.22      0.22      0.20         0.17
  YS02001765YS02001762        0.21      0.21      0.22      0.10         0.09
  YS02001770YS02001767        0.21      0.23      0.21      0.80         0.21
  YS02001774YS02001770        0.22      0.22      0.25      0.01         0.01
  YS02001779YS02001774        0.19      0.19      0.25      0.01         0.01
  YS02001767YS02001765        0.21      0.21      0.21      0.24         0.20
  YS02006561YS02001783        0.56      0.56      0.78      0.01         0.01
  YS02001783YS02001784        0.75      0.78      0.75      0.98         0.75
  YS02001784YS02001785        0.63      0.75      0.63      1.38         0.63
  YS02001790YS02001791        0.01      0.01      0.01      0.74         0.01
  YS02001910YS02001907        0.82      0.82      1.07      0.12         0.12
  YS02001786YS02001788        0.01      0.63      0.01      1.16         0.01
  YS02001915YS02001910        0.71      0.71      0.82      0.01         0.01
  YS02001918YS02001915        0.61      0.61      0.71      0.01         0.01
  YS02001923YS02001920        0.54      0.54      0.63      0.01         0.01
  YS02001926YS02001923        0.26      0.26      0.29      0.04         0.01
  YS02001929YS02001926        0.13      0.13      0.29      0.01         0.01
  YS02001932YS02001929        0.10      0.10      0.13      0.01         0.01
  YS02001935YS02001932        0.01      0.01      0.08      0.01         0.01
  YS02001920YS02001918        0.61      0.61      0.63      0.01         0.01
  YS02003290YS02003287        1.85      1.85      2.25      0.01         0.01
  YS02003294YS02003290        1.87      1.87      2.36      0.06         0.01
  YS02003297YS02003294        2.27      2.27      2.29      0.36         0.33
  YS02003275YS02003272        1.54      1.70      1.54      2.13         1.54
  YS02003300YS02003297        1.96      1.96      2.18      0.01         0.01
  YS02003303YS02003300        1.83      1.83      2.05      0.01         0.01
  YS02005550YS02005551        0.01      0.08      0.01      0.12         0.01
  YS02005568YS02005569        0.01      0.18      0.01      0.30         0.01
  YS02005582YS02005583        0.38      0.64      0.38      0.88         0.38
  YS02003272YS02003269        0.01      1.63      0.01      2.14         0.01
  YS02003278YS02003275        1.77      2.34      1.77      2.84         1.77
  YS02003281YS02003278        2.06      2.06      2.29      1.75         1.75
  YS02003284YS02003281        2.06      2.06      2.30      1.30         0.42
  YS02003287YS02003284        2.20      2.20      2.40      0.01         0.07
  YS02003306YS02003303        1.76      1.76      1.95      0.58         0.58
  YS02003309YS02003306        1.60      1.60      1.76      0.01         0.01
  YS02005600YS02005375        0.25      0.25      0.27      0.27         0.25
  YS02005384YS02005593        0.01      1.57      0.01      1.64         0.01
  YS02005595YS02005596        0.37      0.39      0.37      0.41         0.37
  YS02005609YS02005610        0.01      0.01      0.01      0.02         0.01
  YS02005612YS02005613        0.17      0.17      1.20      0.39         0.01
  YS02005549YS02005547        0.01      0.01      0.01      0.02         0.01
  YS02005553YS02005554        0.01      0.12      0.01      0.26         0.01
  YS02005556YS02005557        0.01      0.07      0.01      0.31         0.01
  YS02005562YS02005563        0.01      0.01      0.01      0.26         0.01
  YS02005571YS02005572        0.06      0.31      0.06      0.46         0.06
  YS02005572YS02005574        0.01      0.06      0.01      0.13         0.01
  YS02005576YS02005577        0.01      0.12      0.01      0.18         0.01
  YS02005577YS02005578        0.01      0.01      0.01      0.04         0.01
  YS02005579YS02005580        0.31      0.50      0.31      0.70         0.31
  YS02005580YS02005581        0.28      0.31      0.28      0.33         0.28
  YS02005583YS02005584        0.38      0.38      0.40      0.40         0.38
  YS02006553YS02006556        0.94      0.94      1.11      0.01         0.01
  YS02006556YS02006558        1.01      1.01      1.15      0.01         0.01
  YSB6556YSB1171              1.22      1.22      2.40      0.01         0.01
  YSB1202YSB1205              1.67      1.67      1.80      0.01         0.01
  YSB1205YSB1209              1.79      1.80      1.81      1.14         1.08
  YSB1209YSB1212              1.73      1.81      1.73      2.20         1.73
  YSB1212YSB1215              1.73      1.73      1.78      0.74         0.72
  YSB1215YSB1218              1.78      1.78      1.82      0.84         0.82
  YSB1218YSB1221              1.70      1.70      1.87      1.41         1.41
  YSB1221YSB1224              1.87      1.87      1.92      1.69         1.69
  YSB1224YSB1105              1.19      2.09      1.19      2.36         1.19
  YSB1189YSB1186              0.74      0.74      0.86      0.22         0.22
  YS02001907YS02006553        1.39      1.39      1.51      0.01         0.01
  YS02006562YS02006558        0.78      0.78      1.15      0.01         0.01
  YS02006558YS02006561        0.65      0.92      0.65      1.31         0.65
  YS6184YS6187                0.20      0.20      0.21      0.13         0.14
  YS6360YS6363                0.17      0.22      0.17      0.87         0.17
  YS6354YS6360                0.27      0.27      0.28      0.28         0.26
  YS6351YS6354                0.27      0.30      0.27      0.52         0.27
  YS6350YS6351                0.30      0.33      0.30      0.90         0.30
  YS6348YS6350                0.31      0.31      0.33      0.29         0.27
  YS6344YS6348                0.31      0.31      0.39      0.01         0.01
  YS6363YS6132                0.17      0.17      0.33      0.01         0.01
  YS6137YS6132                0.24      0.24      0.45      0.01         0.01
  YS6189YS6137                0.24      0.24      0.27      1.78         0.01
  YS6187YS6189                0.20      0.20      0.21      0.37         0.01
  YS6179YS6184                0.19      0.19      0.20      0.01         0.01
  YS6176YS6179                0.12      0.12      0.19      0.01         0.01
  YS6171YS6176                0.15      0.15      0.19      0.03         0.04
  YS6168YS6171                0.14      0.14      0.15      0.11         0.11
  YS6164YS6168                0.11      0.11      0.14      0.01         0.01
  YS6162YS6164                0.13      0.13      0.16      0.01         0.01
  YS6132YS6404                0.03      0.21      0.03      0.37         0.02
  YSB1106YSB1105              0.08      0.23      0.08      0.27         0.08
  YSB1109YSB1106              0.23      0.29      0.23      0.44         0.23
  YSB1112YSB1109              0.29      0.29      0.29      0.33         0.29
  YSB1115YSB1112              0.27      0.27      0.29      0.10         0.10
  YSB1118YSB1115              0.30      0.31      0.30      0.33         0.30
  YSB1121YSB1118              0.31      0.34      0.31      0.45         0.31
  YSB1124YSB1121              0.30      0.30      0.34      0.01         0.01
  YSB1105YSB1103              0.16      0.16      0.21      0.21         0.16
  YS02001745YS02001748        0.01      0.01      0.01      0.01         0.01
  YS02001748YS02001751        0.02      0.02      0.06      0.01         0.01
  YS02001751YS02001754        0.06      0.06      0.13      0.01         0.01
  YS02001754YS02001757        0.14      0.14      0.23      0.01         0.01
  YS02001882YS02001884        0.71      0.71      0.73      0.01         0.01
  YS02001884YS02001887        0.75      0.75      0.77      0.01         0.01
  YS02001890YS02001895        0.70      0.70      0.82      0.01         0.01
  YS02001895YS02001898        0.69      0.69      0.70      0.01         0.01
  YS02001898YS02001901        0.71      0.71      0.75      0.01         0.01
  YS02001901YS02001904        0.74      0.74      0.75      0.01         0.01
  YS02001904YS02001907        0.74      0.74      1.11      0.01         0.01
  YS02001887YS02001890        0.79      0.79      0.80      0.23         0.01
  YS02004309YS02004307        0.21      1.13      0.21      1.10         0.21
  YS02004319YS02004316        0.44      0.44      0.46      0.01         0.01
  YS02005376YS02005378        2.06      2.06      3.02      0.01         0.01
  YS02005378YS02005381        2.75      2.75      3.02      0.51         0.01
  YS02005381YS02005384        1.57      1.57      2.75      2.89         0.01
  YS02005598YS02005374        0.27      0.27      0.29      0.29         0.27
  YS02005602YS02005603        0.23      0.56      0.23      0.72         0.23
  YS02005603YS02005607        0.23      0.23      0.24      0.24         0.23
  YS02005618YS02005619        0.01      0.01      0.01      0.03         0.01
  YS02005621YS02005622        0.01      0.02      0.01      0.08         0.01
  YS02005624YS02005625        0.01      0.01      0.27      0.05         0.01
  YS02005630YS02005631        0.01      0.06      0.01      0.11         0.01
  YS02005633YS02005634        0.01      0.06      0.01      0.08         0.01
  YS02005636YS02005637        0.01      0.10      0.01      0.14         0.01
  YS02005639YS02005640        0.01      0.07      0.01      0.10         0.01
  YS02005627YS02005628        0.01      0.06      0.01      0.29         0.01
  YS02005644YS02005645        0.01      0.18      0.01      0.21         0.01
  YS02005650YS02005651        0.01      0.17      0.01      0.26         0.01
  YS02005653YS02005654        0.14      0.14      0.15      0.14         0.14
  YS02005654YS02005655        0.01      0.15      0.01      0.24         0.01
  YS02005658YS02005659        0.01      0.09      0.01      0.13         0.01
  YS02005661YS02005662        0.01      0.14      0.01      0.26         0.01
  YS02005664YS02005665        0.01      0.15      0.01      0.54         0.01
  YS02005667YS02005668        0.01      0.01      0.62      0.18         0.01
  YS02005647YS02005648        0.01      0.33      0.01      0.49         0.01
  YS02004312YS02004309        0.73      0.73      1.13      0.01         0.01
  YS02004314YS02004312        0.49      0.49      0.73      0.01         0.01
  YS02004316YS02004314        0.46      0.46      0.49      0.39         0.39
  YS02004320YS02004319        0.01      0.01      0.35      0.01         0.01
  YS6404YS6401                0.01      0.03      0.01      0.84         0.01
  YSB1132YSB1135              0.73      0.73      0.80      0.01         0.01
  YSB1135YSB1138              0.80      0.80      0.83      0.01         0.01
  YSB1138YSB1141              0.83      0.83      0.94      0.50         0.51
  YSB1141YSB1145              0.91      0.91      0.94      0.49         0.46
  YSB1148YSB1151              1.04      1.04      1.36      0.01         0.01
  YSB1151YSB1154              1.16      1.16      1.58      0.01         0.01
  YSB1154YSB6556              1.22      1.22      1.58      0.52         0.01
  YSB1128YSB1132              0.71      0.71      0.73      0.01         0.01
  YSB1145YSB1148              0.94      0.94      1.04      0.01         0.01
  YSB1198YSB1195              0.34      0.34      0.67      0.01         0.01
  YSB1195YSB1192              0.67      0.67      0.70      0.01         0.01
  YSB1192YSB1189              0.70      0.70      0.74      0.01         0.01
  YSB1186YSB1183              0.80      0.80      0.94      0.01         0.01
  YSB1183YSB1180              0.94      0.94      0.98      0.26         0.27
  YSB1180YSB1177              0.98      0.98      1.42      0.01         0.01
  YSB1177YSB1174              1.42      1.42      1.75      0.27         0.28
  YSB1174YSB1171              1.36      1.36      2.07      0.21         0.21
  YSB1171HS02004479           1.03      1.03      1.54      0.01         0.01
  HS02003001HS02003166        0.01      0.01      0.08      0.01         0.01
  YS02004307HS02004052        0.01      0.01      0.25      0.01         0.01
  HS02004881HS02006253        0.88      0.88      2.36      0.01         0.01
  WS0200404049WS6136          0.23      0.23      0.33      0.01         0.01
  HS02003125WS02003215        2.32      2.32      2.42      0.01         0.01
  YS02001793JiankangQianchi        0.01      0.01      4.07      0.01         0.01
  YS02001757CaochengTiaoxuchi        0.23      0.23      0.62      0.15         0.14
  WS02004041WS6409            1.33      1.33      1.44      1.44         1.33
  WSF200WS02003060            0.33      0.33      0.65      0.01         0.01
  HS02004053WS02004407        0.24      0.24      1.37      0.01         0.01
  HS02003036HS02003028        0.25      0.25      0.37      0.01         0.01
  
  
  ***************
  Pumping Summary
  ***************
  
  ---------------------------------------------------------------------------------------------------------
                                                  Min       Avg       Max     Total     Power    % Time Off
                        Percent   Number of      Flow      Flow      Flow    Volume     Usage    Pump Curve
  Pump                 Utilized   Start-Ups       LPS       LPS       LPS  10^6 ltr     Kw-hr    Low   High
  ---------------------------------------------------------------------------------------------------------
  CaochengSewagePump1     48.24           1      0.00    200.00    200.00     1.416     10.85    0.0    0.0
  CaochengSewagePump2     22.40           1      0.00    200.00    200.00     0.657      5.54    0.0    0.0
  CaochengRainPump1       20.86           1      0.00    683.00    683.00     2.091      3.42    0.0   34.0
  CaochengRainPump2       18.31           1      0.00    683.00    683.00     1.835      2.86    0.0   38.8
  JiankangSewagePump      63.64           1      0.00    300.00    300.00     2.802     42.18    0.0    0.0
  JiankangRainPump1       20.71           5      0.00   1000.00   1000.00     3.039     20.65    0.0    0.0
  JiankangRainPump2        0.00           0      0.00      0.00      0.00     0.000      0.00    0.0    0.0
  XierchiSewagePump1      95.90           1      0.00     95.00     95.00     1.337      7.02    0.0    0.0
  XierchiSewagePump2      88.14           1      0.00     95.00     95.00     1.229      6.18    0.0    0.0
  XierchiSewagePump3       0.00           0      0.00      0.00      0.00     0.000      0.00    0.0    0.0
  XierchiSewagePump4       0.00           0      0.00      0.00      0.00     0.000      0.00    0.0    0.0
  

  Analysis begun on:  Sat Jul 30 23:47:44 2022
  Analysis ended on:  Sun Jul 31 00:44:35 2022
  Total elapsed time: 00:56:51