
  EPA STORM WATER MANAGEMENT MODEL - VERSION 5.1 (Build 5.3.0.dev0)
  --------------------------------------------------------------

  WARNING 04: minimum elevation drop used for Conduit WS02004404WS02004405
  WARNING 03: negative offset ignored for Link YS02001904YS02001907
  
  *********************************************************
  NOTE: The summary statistics displayed in this report are
  based on results found at every computational time step,  
  not just on results from each reporting time step.
  *********************************************************
  
  ****************
  Analysis Options
  ****************
  Flow Units ............... LPS
  Process Models:
    Rainfall/Runoff ........ YES
    RDII ................... NO
    Snowmelt ............... NO
    Groundwater ............ NO
    Flow Routing ........... YES
    Ponding Allowed ........ NO
    Water Quality .......... NO
  Infiltration Method ...... HORTON
  Flow Routing Method ...... DYNWAVE
  Surcharge Method ......... EXTRAN
  Starting Date ............ 03/31/2017 00:00:00
  Ending Date .............. 03/31/2017 03:00:00
  Antecedent Dry Days ...... 8.0
  Report Time Step ......... 00:00:30
  Wet Time Step ............ 00:01:00
  Dry Time Step ............ 00:01:00
  Routing Time Step ........ 30.00 sec
  Variable Time Step ....... YES
  Maximum Trials ........... 8
  Number of Threads ........ 6
  Head Tolerance ........... 0.001500 m
  
  
  **************************        Volume         Depth
  Runoff Quantity Continuity     hectare-m            mm
  **************************     ---------       -------
  Initial LID Storage ......         0.284         2.409
  Total Precipitation ......        10.619        90.112
  Evaporation Loss .........         0.000         0.000
  Infiltration Loss ........         0.622         5.275
  Surface Runoff ...........         7.331        62.214
  LID Drainage .............         0.612         5.192
  Final Storage ............         2.358        20.009
  Continuity Error (%) .....        -0.182
  
  
  **************************        Volume        Volume
  Flow Routing Continuity        hectare-m      10^6 ltr
  **************************     ---------     ---------
  Dry Weather Inflow .......         0.171         1.706
  Wet Weather Inflow .......         7.913        79.127
  Groundwater Inflow .......         0.000         0.000
  RDII Inflow ..............         0.000         0.000
  External Inflow ..........         0.032         0.325
  External Outflow .........         4.522        45.216
  Flooding Loss ............         3.379        33.789
  Evaporation Loss .........         0.000         0.000
  Exfiltration Loss ........         0.000         0.000
  Initial Stored Volume ....         0.303         3.031
  Final Stored Volume ......         0.548         5.479
  Continuity Error (%) .....        -0.351
  
  
  *************************
  Highest Continuity Errors
  *************************
  Node WS02005193 (58.27%)
  Node YS02001884 (27.50%)
  Node YS02001774 (12.85%)
  Node YS02004320 (9.44%)
  Node HS02003116 (5.53%)
  
  
  ***************************
  Time-Step Critical Elements
  ***************************
  Link YS02005655YS02005657 (41.66%)
  Link WS02006252WS02006251 (22.06%)
  Link WS02004041WS6409 (16.92%)
  Link WS02006280WS02006229 (2.26%)
  Link WS02003073WS02003076 (2.13%)
  
  
  ********************************
  Highest Flow Instability Indexes
  ********************************
  Link WS02006238WS02006235 (78)
  Link WS02003200WS02003201 (72)
  Link WS02003215WS02003116 (69)
  Link WS02004404WS02004405 (67)
  Link WS02006239WS02006238 (66)
  
  
  *************************
  Routing Time Step Summary
  *************************
  Minimum Time Step           :     0.50 sec
  Average Time Step           :     0.97 sec
  Maximum Time Step           :    30.00 sec
  Percent in Steady State     :     0.00
  Average Iterations per Step :     6.43
  Percent Not Converging      :    36.25
  
  
  ***************************
  Subcatchment Runoff Summary
  ***************************
  
  ------------------------------------------------------------------------------------------------------------------------------
                            Total      Total      Total      Total     Imperv       Perv      Total       Total     Peak  Runoff
                           Precip      Runon       Evap      Infil     Runoff     Runoff     Runoff      Runoff   Runoff   Coeff
  Subcatchment                 mm         mm         mm         mm         mm         mm         mm    10^6 ltr      LPS
  ------------------------------------------------------------------------------------------------------------------------------
  sub0                      90.11       0.00       0.00       0.73      81.50       5.26      86.76        0.07    54.75   0.963
  sub1                      90.11       0.00       0.00       5.91      54.11       5.70      68.47        0.46   282.26   0.760
  sub2                      90.11       0.00       0.00       6.26      39.41      17.78      62.60        0.58   303.44   0.695
  sub3                      90.11       0.00       0.00       5.55      42.09      17.94      63.86        1.44   694.62   0.709
  sub4                      90.11       0.00       0.00       3.21      65.56       6.85      76.20        1.59   821.77   0.846
  sub5                      90.11       0.00       0.00       6.63      46.57       3.01      59.74        0.68   418.37   0.663
  sub6                      90.11       0.00       0.00       5.58      52.21       3.38      63.94        1.65   987.21   0.710
  sub7                      90.11       0.00       0.00       2.48      72.09       6.11      80.97        0.27   191.72   0.899
  sub8                      90.11       0.00       0.00       1.68      75.57       6.40      83.33        0.53   362.27   0.925
  sub9                      90.11       0.00       0.00       2.01      74.16       6.28      82.39        0.40   267.23   0.914
  sub10                     90.11       0.00       0.00       4.56      59.46       4.44      70.42        0.78   499.17   0.781
  sub11                     90.11       0.00       0.00       3.62      66.18       4.94      76.08        0.88   601.21   0.844
  sub12                     90.11       0.00       0.00       6.87      43.20       5.50      58.59        0.51   351.16   0.650
  sub13                     90.11       0.00       0.00       4.27      53.92      22.27      77.70        0.92   562.21   0.862
  sub14                     90.11       0.00       0.00       3.46      66.76       5.65      76.95        0.73   485.97   0.854
  sub15                     90.11       0.00       0.00       6.35      41.37      14.50      62.57        1.08   647.17   0.694
  sub16                     90.11       0.00       0.00       6.00      42.39      17.26      65.15        0.68   450.75   0.723
  sub17                     90.11       0.00       0.00       7.88      32.52      12.73      54.90        0.47   297.66   0.609
  sub18                     90.11       0.00       0.00       2.94      69.98       5.93      79.53        0.63   453.56   0.883
  sub19                     90.11       0.00       0.00       7.74      31.19      11.67      52.37        0.17   104.78   0.581
  sub20                     90.11       0.00       0.00      12.22      31.37       2.66      54.65        0.38   208.74   0.606
  sub21                     90.11       0.00       0.00       4.00      62.36       7.25      74.57        0.38   271.51   0.828
  sub22                     90.11       0.00       0.00       5.26      41.72      24.73      68.50        4.33  2502.41   0.760
  sub23                     90.11       0.00       0.00       5.56      41.10      19.55      64.58        3.08  1894.24   0.717
  sub24                     90.11       0.00       0.00       4.76      57.12       7.90      71.05        2.55  1790.97   0.788
  sub25                     90.11       0.00       0.00       0.97      72.88       4.70      77.58        1.00   799.00   0.861
  sub26                     90.11       0.00       0.00       7.14      38.73      10.37      58.20        0.83   612.94   0.646
  sub27                     90.11       0.00       0.00       4.30      61.33       5.19      72.50        1.05   685.91   0.805
  sub28                     90.11       0.00       0.00       4.21      62.51       4.67      73.15        1.15   745.42   0.812
  sub29                     90.11       0.00       0.00       5.71      51.60       3.85      63.94        1.03   606.33   0.710
  sub30                     90.11       0.00       0.00       4.64      60.58       4.52      71.81        1.62  1164.60   0.797
  sub31                     90.11       0.00       0.00       6.29      50.23       8.74      67.45        1.43  1019.00   0.749
  sub32                     90.11       0.00       0.00       5.36      55.90       4.17      68.02        1.35   925.70   0.755
  sub33                     90.11       0.00       0.00       4.80      58.34       7.43      72.06        1.32   955.84   0.800
  sub34                     90.11       0.00       0.00       7.03      29.95      24.60      59.71        1.33   869.41   0.663
  sub35                     90.11       0.00       0.00       4.31      64.46       4.80      75.48        0.26   216.50   0.838
  sub36                     90.11       0.00       0.00       6.60      41.83      10.00      60.12        0.52   381.81   0.667
  sub37                     90.11       0.00       0.00       6.07      38.69      20.71      64.12        0.49   358.02   0.712
  sub38                     90.11       0.00       0.00       6.75      37.14      16.86      60.83        1.15   868.94   0.675
  sub39                     90.11       0.00       0.00       5.06      58.22       4.34      70.00        0.74   569.92   0.777
  sub40                     90.11       0.00       0.00       3.61      67.12       5.00      77.06        0.90   706.43   0.855
  sub41                     90.11       0.00       0.00       4.30      59.24       9.59      73.70        1.42  1068.93   0.818
  sub42                     90.11       0.00       0.00       3.12      69.70       5.90      79.54        0.80   622.46   0.883
  sub43                     90.11       0.00       0.00       3.91      50.25      25.20      75.44        0.61   417.95   0.837
  sub44                     90.11       0.00       0.00       6.19      51.99       3.36      64.90        0.73   470.05   0.720
  sub45                     90.11       0.00       0.00       7.06      42.04       7.29      59.15        1.08   703.48   0.656
  sub46                     90.11       0.00       0.00       6.87      23.76      32.50      58.83        0.41   243.28   0.653
  sub47                     90.11       0.00       0.00       6.75      47.86       3.57      61.79        0.47   314.49   0.686
  sub48                     90.11       0.00       0.00       2.77      70.67       5.98      79.95        0.61   428.46   0.887
  sub49                     90.11       0.00       0.00       5.56      54.31       4.05      66.64        0.61   401.19   0.740
  sub50                     90.11       0.00       0.00       4.62      60.16       4.49      71.32        0.50   334.99   0.791
  sub51                     90.11       0.00       0.00       2.97      70.07       5.23      79.10        0.37   268.41   0.878
  sub52                     90.11       0.00       0.00       5.67      54.08       3.50      66.20        0.72   468.21   0.735
  sub53                     90.11       0.00       0.00       4.86      59.32       4.42      70.86        0.72   493.01   0.786
  sub54                     90.11       0.00       0.00       6.28      49.85       3.23      62.72        0.37   230.82   0.696
  sub55                     90.11       0.00       0.00       3.37      67.18       5.02      76.71        0.61   399.07   0.851
  sub56                     90.11       0.00       0.00       3.30      63.94      12.34      78.81        1.12   648.57   0.875
  sub57                     90.11       0.00       0.00       3.25      59.38      21.18      80.56        0.52   307.39   0.894
  sub58                     90.11       0.00       0.00       7.56      16.52      32.68      51.92        1.92   826.40   0.576
  sub59                     90.11       0.00       0.00       7.74      12.82      29.32      45.28        1.04   387.00   0.502
  sub60                     90.11       0.00       0.00       3.65      65.23       7.58      77.19        1.01   697.75   0.857
  sub61                     90.11       0.00       0.00       5.54      52.71       9.13      68.90        1.26   859.40   0.765
  sub62                     90.11       0.00       0.00       4.55      60.39       4.51      71.47        1.96  1243.40   0.793
  sub67                     90.11       0.00       0.00       7.03      45.65       3.41      59.89        1.11   696.51   0.665
  sub68                     90.11       0.00       0.00       3.87      62.62       8.64      75.71        2.08  1372.34   0.840
  sub71                     90.11       0.00       0.00       3.29      67.38       5.04      76.82        2.01  1205.36   0.852
  sub72                     90.11       0.00       0.00       4.90      57.78       3.76      68.86        0.95   525.95   0.764
  sub73                     90.11       0.00       0.00       2.25      65.16      14.65      79.81        0.08    61.69   0.886
  sub74                     90.11       0.00       0.00       3.32      54.54      21.44      75.98        0.12    92.63   0.843
  sub75                     90.11       0.00       0.00       3.44      55.45      19.95      76.05        0.17   130.05   0.844
  sub76                     90.11       0.00       0.00       3.91      61.37      11.42      76.62        0.19   141.09   0.850
  sub77                     90.11       0.00       0.00       3.24      64.69      11.25      78.66        0.13    96.78   0.873
  sub78                     90.11       0.00       0.00       7.86      40.32       5.14      57.23        0.16   104.41   0.635
  sub79                     90.11       0.00       0.00       5.61      51.05      13.53      70.72        0.18   126.84   0.785
  sub80                     90.11       0.00       0.00       4.24      52.00      21.33      75.05        0.22   161.05   0.833
  sub81                     90.11       0.00       0.00       4.79      47.64      23.07      72.82        0.22   154.06   0.808
  sub82                     90.11       0.00       0.00       4.89      46.13      22.46      70.98        0.21   151.95   0.788
  sub83                     90.11       0.00       0.00       5.25      44.18      22.51      69.68        0.23   169.25   0.773
  sub84                     90.11       0.00       0.00       4.90      47.04      20.87      70.70        0.38   260.77   0.785
  sub85                     90.11       0.00       0.00       7.38      47.94      12.70      70.37        0.31   207.32   0.781
  sub86                     90.11       0.00       0.00       4.06      57.18      16.77      76.64        0.37   261.70   0.850
  sub87                     90.11       0.00       0.00       3.65      55.06      24.51      79.57        0.24   170.84   0.883
  sub88                     90.11       0.00       0.00       3.55      55.97      23.91      79.88        0.24   177.15   0.887
  sub89                     90.11       0.00       0.00       3.24      57.92      21.79      79.70        0.21   162.75   0.884
  sub90                     90.11       0.00       0.00       2.83      62.49      19.38      81.87        0.20   153.38   0.909
  sub91                     90.11       0.00       0.00       2.84      62.16      19.39      81.55        0.15   117.62   0.905
  sub92                     90.11       0.00       0.00       3.24      57.65      21.86      79.51        0.12    98.61   0.882
  sub93                     90.11       0.00       0.00       3.24      58.23      22.09      80.32        0.15   121.26   0.891
  sub94                     90.11       0.00       0.00       3.24      58.53      22.10      80.64        0.17   137.99   0.895
  sub95                     90.11       0.00       0.00       3.04      58.45      20.13      78.58        0.12    96.03   0.872
  sub96                     90.11       0.00       0.00       2.35      64.44      15.45      79.89        0.15   128.77   0.887
  sub97                     90.11       0.00       0.00       6.14      25.97      34.18      61.38        0.14   118.33   0.681
  sub98                     90.11       0.00       0.00       6.66      18.83      39.52      58.79        0.19   122.64   0.652
  sub99                     90.11       0.00       0.00       6.92      13.81      40.82      54.63        0.19    99.06   0.606
  sub100                    90.11       0.00       0.00       6.91      13.76      39.33      53.09        0.19    85.24   0.589
  sub101                    90.11       0.00       0.00       6.86      13.57      38.72      52.29        0.18    80.34   0.580
  sub102                    90.11       0.00       0.00       6.63      15.48      36.21      51.69        0.16    68.31   0.574
  sub103                    90.11       0.00       0.00       6.86      14.46      37.09      51.55        0.24   101.66   0.572
  sub104                    90.11       0.00       0.00       6.80      14.25      36.33      50.58        0.27   108.93   0.561
  sub105                    90.11       0.00       0.00       8.50      16.69      48.11      64.80        0.37   134.86   0.719
  sub106                    90.11       0.00       0.00       6.89      13.65      38.07      51.71        0.26   113.89   0.574
  sub107                    90.11       0.00       0.00       7.21      11.99      38.97      51.57        0.37   166.14   0.572
  sub108                    90.11       0.00       0.00       7.24      11.44      41.19      53.10        0.49   257.63   0.589
  sub109                    90.11       0.00       0.00       6.57      19.17      27.69      49.63        0.71   436.09   0.551
  sub110                    90.11       0.00       0.00       5.91      48.52       9.02      65.09        1.37   958.52   0.722
  sub111                    90.11       0.00       0.00       6.08      43.73      12.91      63.35        0.54   380.62   0.703
  sub112                    90.11       0.00       0.00       4.82      53.45      11.99      70.46        0.56   402.99   0.782
  sub113                    90.11       0.00       0.00       2.67      68.46       9.48      80.13        0.55   412.71   0.889
  sub114                    90.11       0.00       0.00       2.62      69.43       8.83      80.55        0.53   398.62   0.894
  sub115                    90.11       0.00       0.00       3.68      64.65       7.52      76.57        0.56   412.28   0.850
  sub116                    90.11       0.00       0.00       6.44      35.65      19.53      60.60        0.11    73.33   0.673
  sub117                    90.11       0.00       0.00       6.88      33.07      19.01      58.36        0.27   177.31   0.648
  

  ***********************
  LID Performance Summary
  ***********************

  --------------------------------------------------------------------------------------------------------------------
                                         Total      Evap     Infil   Surface    Drain    Initial     Final  Continuity
                                        Inflow      Loss      Loss   Outflow   Outflow   Storage   Storage       Error
  Subcatchment      LID Control             mm        mm        mm        mm        mm        mm        mm           %
  --------------------------------------------------------------------------------------------------------------------
  sub1              PermeablePavement     90.11      0.00     20.50      0.00     35.98      0.00     34.17       -0.60
  sub1              BioRententionCell     90.11      0.00      2.95      0.00      0.00     23.50    110.76       -0.09
  sub2              PermeablePavement     90.11      0.00     20.50      0.00     35.98      0.00     34.17       -0.60
  sub2              BioRententionCell     90.11      0.00      2.95      0.00      0.00     23.50    110.76       -0.09
  sub3              PermeablePavement     90.11      0.00     20.50      0.00     35.98      0.00     34.17       -0.60
  sub3              BioRententionCell     90.11      0.00      2.95      0.00      0.00     23.50    110.76       -0.09
  sub4              PermeablePavement     90.11      0.00     20.50      0.00     35.98      0.00     34.17       -0.60
  sub4              BioRententionCell     90.11      0.00      2.95      0.00      0.00     23.50    110.76       -0.09
  sub5              PermeablePavement     90.11      0.00     20.50      0.00     35.98      0.00     34.17       -0.60
  sub5              BioRententionCell     90.11      0.00      2.95      0.00      0.00     23.50    110.76       -0.09
  sub6              PermeablePavement     90.11      0.00     20.50      0.00     35.98      0.00     34.17       -0.60
  sub6              BioRententionCell     90.11      0.00      2.95      0.00      0.00     23.50    110.76       -0.09
  sub7              PermeablePavement     90.11      0.00     20.50      0.00     35.98      0.00     34.17       -0.60
  sub7              BioRententionCell     90.11      0.00      2.95      0.00      0.00     23.50    110.76       -0.09
  sub8              PermeablePavement     90.11      0.00     20.50      0.00     35.98      0.00     34.17       -0.60
  sub8              BioRententionCell     90.11      0.00      2.95      0.00      0.00     23.50    110.76       -0.09
  sub9              PermeablePavement     90.11      0.00     20.50      0.00     35.98      0.00     34.17       -0.60
  sub9              BioRententionCell     90.11      0.00      2.95      0.00      0.00     23.50    110.76       -0.09
  sub10             PermeablePavement     90.11      0.00     20.50      0.00     35.98      0.00     34.17       -0.60
  sub10             BioRententionCell     90.11      0.00      2.95      0.00      0.00     23.50    110.76       -0.09
  sub11             PermeablePavement     90.11      0.00     20.50      0.00     35.98      0.00     34.17       -0.60
  sub11             BioRententionCell     90.11      0.00      2.95      0.00      0.00     23.50    110.76       -0.09
  sub12             PermeablePavement     90.11      0.00     20.50      0.00     35.98      0.00     34.17       -0.60
  sub12             BioRententionCell     90.11      0.00      2.95      0.00      0.00     23.50    110.76       -0.09
  sub13             PermeablePavement     90.11      0.00     20.50      0.00     35.98      0.00     34.17       -0.60
  sub13             BioRententionCell     90.11      0.00      2.95      0.00      0.00     23.50    110.76       -0.09
  sub14             PermeablePavement     90.11      0.00     20.50      0.00     35.98      0.00     34.17       -0.60
  sub14             BioRententionCell     90.11      0.00      2.95      0.00      0.00     23.50    110.76       -0.09
  sub15             PermeablePavement     90.11      0.00     20.50      0.00     35.98      0.00     34.17       -0.60
  sub15             BioRententionCell     90.11      0.00      2.95      0.00      0.00     23.50    110.76       -0.09
  sub16             PermeablePavement     90.11      0.00     20.50      0.00     35.98      0.00     34.17       -0.60
  sub16             BioRententionCell     90.11      0.00      2.95      0.00      0.00     23.50    110.76       -0.09
  sub17             PermeablePavement     90.11      0.00     20.50      0.00     35.98      0.00     34.17       -0.60
  sub17             BioRententionCell     90.11      0.00      2.95      0.00      0.00     23.50    110.76       -0.09
  sub18             PermeablePavement     90.11      0.00     20.50      0.00     35.98      0.00     34.17       -0.60
  sub18             BioRententionCell     90.11      0.00      2.95      0.00      0.00     23.50    110.76       -0.09
  sub19             PermeablePavement     90.11      0.00     20.50      0.00     35.98      0.00     34.17       -0.60
  sub19             BioRententionCell     90.11      0.00      2.95      0.00      0.00     23.50    110.76       -0.09
  sub20             PermeablePavement     90.11      0.00     20.50      0.00     35.98      0.00     34.17       -0.60
  sub20             PermeablePavement     90.11      0.00     20.50      0.00     35.98      0.00     34.17       -0.60
  sub20             BioRententionCell     90.11      0.00      2.95      0.00      0.00     23.50    110.76       -0.09
  sub21             PermeablePavement     90.11      0.00     20.50      0.00     35.98      0.00     34.17       -0.60
  sub21             BioRententionCell     90.11      0.00      2.95      0.00      0.00     23.50    110.76       -0.09
  sub22             PermeablePavement     90.11      0.00     20.50      0.00     35.98      0.00     34.17       -0.60
  sub22             BioRententionCell     90.11      0.00      2.95      0.00      0.00     23.50    110.76       -0.09
  sub23             PermeablePavement     90.11      0.00     20.50      0.00     35.98      0.00     34.17       -0.60
  sub23             BioRententionCell     90.11      0.00      2.95      0.00      0.00     23.50    110.76       -0.09
  sub24             PermeablePavement     90.11      0.00     20.50      0.00     35.98      0.00     34.17       -0.60
  sub24             BioRententionCell     90.11      0.00      2.95      0.00      0.00     23.50    110.76       -0.09
  sub25             BioRententionCell     90.11      0.00      2.95      0.00      0.00     23.50    110.76       -0.09
  sub26             PermeablePavement     90.11      0.00     20.50      0.00     35.98      0.00     34.17       -0.60
  sub26             BioRententionCell     90.11      0.00      2.95      0.00      0.00     23.50    110.76       -0.09
  sub27             PermeablePavement     90.11      0.00     20.50      0.00     35.98      0.00     34.17       -0.60
  sub27             BioRententionCell     90.11      0.00      2.95      0.00      0.00     23.50    110.76       -0.09
  sub28             PermeablePavement     90.11      0.00     20.50      0.00     35.98      0.00     34.17       -0.60
  sub28             BioRententionCell     90.11      0.00      2.95      0.00      0.00     23.50    110.76       -0.09
  sub29             PermeablePavement     90.11      0.00     20.50      0.00     35.98      0.00     34.17       -0.60
  sub29             BioRententionCell     90.11      0.00      2.95      0.00      0.00     23.50    110.76       -0.09
  sub30             PermeablePavement     90.11      0.00     20.50      0.00     35.98      0.00     34.17       -0.60
  sub30             BioRententionCell     90.11      0.00      2.95      0.00      0.00     23.50    110.76       -0.09
  sub31             PermeablePavement     90.11      0.00     20.50      0.00     35.98      0.00     34.17       -0.60
  sub31             BioRententionCell     90.11      0.00      2.95      0.00      0.00     23.50    110.76       -0.09
  sub32             PermeablePavement     90.11      0.00     20.50      0.00     35.98      0.00     34.17       -0.60
  sub32             BioRententionCell     90.11      0.00      2.95      0.00      0.00     23.50    110.76       -0.09
  sub33             PermeablePavement     90.11      0.00     20.50      0.00     35.98      0.00     34.17       -0.60
  sub33             BioRententionCell     90.11      0.00      2.95      0.00      0.00     23.50    110.76       -0.09
  sub34             PermeablePavement     90.11      0.00     20.50      0.00     35.98      0.00     34.17       -0.60
  sub34             BioRententionCell     90.11      0.00      2.95      0.00      0.00     23.50    110.76       -0.09
  sub35             PermeablePavement     90.11      0.00     20.50      0.00     35.98      0.00     34.17       -0.60
  sub35             BioRententionCell     90.11      0.00      2.95      0.00      0.00     23.50    110.76       -0.09
  sub36             PermeablePavement     90.11      0.00     20.50      0.00     35.98      0.00     34.17       -0.60
  sub36             BioRententionCell     90.11      0.00      2.95      0.00      0.00     23.50    110.76       -0.09
  sub37             PermeablePavement     90.11      0.00     20.50      0.00     35.98      0.00     34.17       -0.60
  sub37             BioRententionCell     90.11      0.00      2.95      0.00      0.00     23.50    110.76       -0.09
  sub38             PermeablePavement     90.11      0.00     20.50      0.00     35.98      0.00     34.17       -0.60
  sub38             BioRententionCell     90.11      0.00      2.95      0.00      0.00     23.50    110.76       -0.09
  sub39             PermeablePavement     90.11      0.00     20.50      0.00     35.98      0.00     34.17       -0.60
  sub39             BioRententionCell     90.11      0.00      2.95      0.00      0.00     23.50    110.76       -0.09
  sub40             PermeablePavement     90.11      0.00     20.50      0.00     35.98      0.00     34.17       -0.60
  sub40             BioRententionCell     90.11      0.00      2.95      0.00      0.00     23.50    110.76       -0.09
  sub41             PermeablePavement     90.11      0.00     20.50      0.00     35.98      0.00     34.17       -0.60
  sub41             BioRententionCell     90.11      0.00      2.95      0.00      0.00     23.50    110.76       -0.09
  sub42             PermeablePavement     90.11      0.00     20.50      0.00     35.98      0.00     34.17       -0.60
  sub42             BioRententionCell     90.11      0.00      2.95      0.00      0.00     23.50    110.76       -0.09
  sub43             BioRententionCell     90.11      0.00      2.95      0.00      0.00     23.50    110.76       -0.09
  sub44             PermeablePavement     90.11      0.00     20.50      0.00     35.98      0.00     34.17       -0.60
  sub44             BioRententionCell     90.11      0.00      2.95      0.00      0.00     23.50    110.76       -0.09
  sub45             PermeablePavement     90.11      0.00     20.50      0.00     35.98      0.00     34.17       -0.60
  sub45             BioRententionCell     90.11      0.00      2.95      0.00      0.00     23.50    110.76       -0.09
  sub46             PermeablePavement     90.11      0.00     20.50      0.00     35.98      0.00     34.17       -0.60
  sub46             BioRententionCell     90.11      0.00      2.95      0.00      0.00     23.50    110.76       -0.09
  sub47             PermeablePavement     90.11      0.00     20.50      0.00     35.98      0.00     34.17       -0.60
  sub47             BioRententionCell     90.11      0.00      2.95      0.00      0.00     23.50    110.76       -0.09
  sub48             PermeablePavement     90.11      0.00     20.50      0.00     35.98      0.00     34.17       -0.60
  sub48             BioRententionCell     90.11      0.00      2.95      0.00      0.00     23.50    110.76       -0.09
  sub49             PermeablePavement     90.11      0.00     20.50      0.00     35.98      0.00     34.17       -0.60
  sub49             BioRententionCell     90.11      0.00      2.95      0.00      0.00     23.50    110.76       -0.09
  sub50             PermeablePavement     90.11      0.00     20.50      0.00     35.98      0.00     34.17       -0.60
  sub50             BioRententionCell     90.11      0.00      2.95      0.00      0.00     23.50    110.76       -0.09
  sub51             PermeablePavement     90.11      0.00     20.50      0.00     35.98      0.00     34.17       -0.60
  sub51             BioRententionCell     90.11      0.00      2.95      0.00      0.00     23.50    110.76       -0.09
  sub52             PermeablePavement     90.11      0.00     20.50      0.00     35.98      0.00     34.17       -0.60
  sub52             BioRententionCell     90.11      0.00      2.95      0.00      0.00     23.50    110.76       -0.09
  sub53             PermeablePavement     90.11      0.00     20.50      0.00     35.98      0.00     34.17       -0.60
  sub53             BioRententionCell     90.11      0.00      2.95      0.00      0.00     23.50    110.76       -0.09
  sub54             PermeablePavement     90.11      0.00     20.50      0.00     35.98      0.00     34.17       -0.60
  sub54             BioRententionCell     90.11      0.00      2.95      0.00      0.00     23.50    110.76       -0.09
  sub55             PermeablePavement     90.11      0.00     20.50      0.00     35.98      0.00     34.17       -0.60
  sub55             BioRententionCell     90.11      0.00      2.95      0.00      0.00     23.50    110.76       -0.09
  sub56             PermeablePavement     90.11      0.00     20.50      0.00     35.98      0.00     34.17       -0.60
  sub56             BioRententionCell     90.11      0.00      2.95      0.00      0.00     23.50    110.76       -0.09
  sub58             PermeablePavement     90.11      0.00     20.50      0.00     35.98      0.00     34.17       -0.60
  sub58             BioRententionCell     90.11      0.00      2.95      0.00      0.00     23.50    110.76       -0.09
  sub59             PermeablePavement     90.11      0.00     20.50      0.00     35.98      0.00     34.17       -0.60
  sub59             BioRententionCell     90.11      0.00      2.95      0.00      0.00     23.50    110.76       -0.09
  sub60             PermeablePavement     90.11      0.00     20.50      0.00     35.98      0.00     34.17       -0.60
  sub60             BioRententionCell     90.11      0.00      2.95      0.00      0.00     23.50    110.76       -0.09
  sub61             PermeablePavement     90.11      0.00     20.50      0.00     35.98      0.00     34.17       -0.60
  sub61             BioRententionCell     90.11      0.00      2.95      0.00      0.00     23.50    110.76       -0.09
  sub62             PermeablePavement     90.11      0.00     20.50      0.00     35.98      0.00     34.17       -0.60
  sub62             BioRententionCell     90.11      0.00      2.95      0.00      0.00     23.50    110.76       -0.09
  sub67             PermeablePavement     90.11      0.00     20.50      0.00     35.98      0.00     34.17       -0.60
  sub67             BioRententionCell     90.11      0.00      2.95      0.00      0.00     23.50    110.76       -0.09
  sub68             PermeablePavement     90.11      0.00     20.50      0.00     35.98      0.00     34.17       -0.60
  sub68             BioRententionCell     90.11      0.00      2.95      0.00      0.00     23.50    110.76       -0.09
  sub71             PermeablePavement     90.11      0.00     20.50      0.00     35.98      0.00     34.17       -0.60
  sub71             BioRententionCell     90.11      0.00      2.95      0.00      0.00     23.50    110.76       -0.09
  sub72             PermeablePavement     90.11      0.00     20.50      0.00     35.98      0.00     34.17       -0.60
  sub72             BioRententionCell     90.11      0.00      2.95      0.00      0.00     23.50    110.76       -0.09
  sub73             BioRententionCell     90.11      0.00      2.95      0.00      0.00     23.50    110.76       -0.09
  sub74             BioRententionCell     90.11      0.00      2.95      0.00      0.00     23.50    110.76       -0.09
  sub75             PermeablePavement     90.11      0.00     20.50      0.00     35.98      0.00     34.17       -0.60
  sub75             BioRententionCell     90.11      0.00      2.95      0.00      0.00     23.50    110.76       -0.09
  sub76             PermeablePavement     90.11      0.00     20.50      0.00     35.98      0.00     34.17       -0.60
  sub76             BioRententionCell     90.11      0.00      2.95      0.00      0.00     23.50    110.76       -0.09
  sub77             PermeablePavement     90.11      0.00     20.50      0.00     35.98      0.00     34.17       -0.60
  sub77             BioRententionCell     90.11      0.00      2.95      0.00      0.00     23.50    110.76       -0.09
  sub78             PermeablePavement     90.11      0.00     20.50      0.00     35.98      0.00     34.17       -0.60
  sub78             BioRententionCell     90.11      0.00      2.95      0.00      0.00     23.50    110.76       -0.09
  sub79             PermeablePavement     90.11      0.00     20.50      0.00     35.98      0.00     34.17       -0.60
  sub79             BioRententionCell     90.11      0.00      2.95      0.00      0.00     23.50    110.76       -0.09
  sub80             PermeablePavement     90.11      0.00     20.50      0.00     35.98      0.00     34.17       -0.60
  sub80             BioRententionCell     90.11      0.00      2.95      0.00      0.00     23.50    110.76       -0.09
  sub81             PermeablePavement     90.11      0.00     20.50      0.00     35.98      0.00     34.17       -0.60
  sub81             BioRententionCell     90.11      0.00      2.95      0.00      0.00     23.50    110.76       -0.09
  sub82             PermeablePavement     90.11      0.00     20.50      0.00     35.98      0.00     34.17       -0.60
  sub82             BioRententionCell     90.11      0.00      2.95      0.00      0.00     23.50    110.76       -0.09
  sub83             PermeablePavement     90.11      0.00     20.50      0.00     35.98      0.00     34.17       -0.60
  sub83             BioRententionCell     90.11      0.00      2.95      0.00      0.00     23.50    110.76       -0.09
  sub84             PermeablePavement     90.11      0.00     20.50      0.00     35.98      0.00     34.17       -0.60
  sub84             BioRententionCell     90.11      0.00      2.95      0.00      0.00     23.50    110.76       -0.09
  sub85             PermeablePavement     90.11      0.00     20.50      0.00     35.98      0.00     34.17       -0.60
  sub85             BioRententionCell     90.11      0.00      2.95      0.00      0.00     23.50    110.76       -0.09
  sub86             PermeablePavement     90.11      0.00     20.50      0.00     35.98      0.00     34.17       -0.60
  sub86             BioRententionCell     90.11      0.00      2.95      0.00      0.00     23.50    110.76       -0.09
  sub87             BioRententionCell     90.11      0.00      2.95      0.00      0.00     23.50    110.76       -0.09
  sub88             BioRententionCell     90.11      0.00      2.95      0.00      0.00     23.50    110.76       -0.09
  sub89             BioRententionCell     90.11      0.00      2.95      0.00      0.00     23.50    110.76       -0.09
  sub90             BioRententionCell     90.11      0.00      2.95      0.00      0.00     23.50    110.76       -0.09
  sub91             BioRententionCell     90.11      0.00      2.95      0.00      0.00     23.50    110.76       -0.09
  sub92             BioRententionCell     90.11      0.00      2.95      0.00      0.00     23.50    110.76       -0.09
  sub93             BioRententionCell     90.11      0.00      2.95      0.00      0.00     23.50    110.76       -0.09
  sub94             BioRententionCell     90.11      0.00      2.95      0.00      0.00     23.50    110.76       -0.09
  sub95             BioRententionCell     90.11      0.00      2.95      0.00      0.00     23.50    110.76       -0.09
  sub96             BioRententionCell     90.11      0.00      2.95      0.00      0.00     23.50    110.76       -0.09
  sub97             PermeablePavement     90.11      0.00     20.50      0.00     35.98      0.00     34.17       -0.60
  sub97             BioRententionCell     90.11      0.00      2.95      0.00      0.00     23.50    110.76       -0.09
  sub98             PermeablePavement     90.11      0.00     20.50      0.00     35.98      0.00     34.17       -0.60
  sub98             BioRententionCell     90.11      0.00      2.95      0.00      0.00     23.50    110.76       -0.09
  sub99             BioRententionCell     90.11      0.00      2.95      0.00      0.00     23.50    110.76       -0.09
  sub100            BioRententionCell     90.11      0.00      2.95      0.00      0.00     23.50    110.76       -0.09
  sub101            BioRententionCell     90.11      0.00      2.95      0.00      0.00     23.50    110.76       -0.09
  sub102            BioRententionCell     90.11      0.00      2.95      0.00      0.00     23.50    110.76       -0.09
  sub103            BioRententionCell     90.11      0.00      2.95      0.00      0.00     23.50    110.76       -0.09
  sub104            BioRententionCell     90.11      0.00      2.95      0.00      0.00     23.50    110.76       -0.09
  sub106            BioRententionCell     90.11      0.00      2.95      0.00      0.00     23.50    110.76       -0.09
  sub107            PermeablePavement     90.11      0.00     20.50      0.00     35.98      0.00     34.17       -0.60
  sub107            BioRententionCell     90.11      0.00      2.95      0.00      0.00     23.50    110.76       -0.09
  sub108            PermeablePavement     90.11      0.00     20.50      0.00     35.98      0.00     34.17       -0.60
  sub108            BioRententionCell     90.11      0.00      2.95      0.00      0.00     23.50    110.76       -0.09
  sub109            PermeablePavement     90.11      0.00     20.50      0.00     35.98      0.00     34.17       -0.60
  sub109            BioRententionCell     90.11      0.00      2.95      0.00      0.00     23.50    110.76       -0.09
  sub110            PermeablePavement     90.11      0.00     20.50      0.00     35.98      0.00     34.17       -0.60
  sub110            BioRententionCell     90.11      0.00      2.95      0.00      0.00     23.50    110.76       -0.09
  sub111            PermeablePavement     90.11      0.00     20.50      0.00     35.98      0.00     34.17       -0.60
  sub111            BioRententionCell     90.11      0.00      2.95      0.00      0.00     23.50    110.76       -0.09
  sub112            PermeablePavement     90.11      0.00     20.50      0.00     35.98      0.00     34.17       -0.60
  sub112            BioRententionCell     90.11      0.00      2.95      0.00      0.00     23.50    110.76       -0.09
  sub113            PermeablePavement     90.11      0.00     20.50      0.00     35.98      0.00     34.17       -0.60
  sub113            BioRententionCell     90.11      0.00      2.95      0.00      0.00     23.50    110.76       -0.09
  sub114            PermeablePavement     90.11      0.00     20.50      0.00     35.98      0.00     34.17       -0.60
  sub114            BioRententionCell     90.11      0.00      2.95      0.00      0.00     23.50    110.76       -0.09
  sub115            PermeablePavement     90.11      0.00     20.50      0.00     35.98      0.00     34.17       -0.60
  sub115            BioRententionCell     90.11      0.00      2.95      0.00      0.00     23.50    110.76       -0.09
  sub116            PermeablePavement     90.11      0.00     20.50      0.00     35.98      0.00     34.17       -0.60
  sub116            BioRententionCell     90.11      0.00      2.95      0.00      0.00     23.50    110.76       -0.09
  sub117            PermeablePavement     90.11      0.00     20.50      0.00     35.98      0.00     34.17       -0.60
  sub117            BioRententionCell     90.11      0.00      2.95      0.00      0.00     23.50    110.76       -0.09
  
  ******************
  Node Depth Summary
  ******************
  
  ---------------------------------------------------------------------------------
                                 Average  Maximum  Maximum  Time of Max    Reported
                                   Depth    Depth      HGL   Occurrence   Max Depth
  Node                 Type       Meters   Meters   Meters  days hr:min      Meters
  ---------------------------------------------------------------------------------
  WS02001211           JUNCTION     0.99     2.60     7.44     0  00:45        2.43
  WS02001212           JUNCTION     0.75     2.27     7.34     0  00:45        1.91
  WS02001213           JUNCTION     0.99     2.50     7.26     0  00:45        2.08
  WS02003069           JUNCTION     0.95     1.69     6.28     0  00:47        1.68
  WS02003072           JUNCTION     1.02     1.58     5.96     0  00:48        1.58
  WS02003073           JUNCTION     1.24     1.70     5.77     0  00:48        1.70
  WS02003076           JUNCTION     0.98     1.36     5.58     0  00:48        1.35
  WS02003060           JUNCTION     0.83     1.85     6.78     0  00:44        1.67
  WS02003066           JUNCTION     0.49     1.18     6.73     0  00:47        1.18
  WS02003059           JUNCTION     1.06     2.17     6.86     0  00:45        1.93
  WS02003115           JUNCTION     2.01     2.76     9.62     0  00:33        2.73
  WS02003116           JUNCTION     2.15     3.03     9.74     0  00:25        2.94
  WS02003118           JUNCTION     2.13     2.90     9.52     0  00:25        2.90
  WS02003215           JUNCTION     2.03     2.80     9.66     0  00:33        2.80
  WS02003110           JUNCTION     1.65     2.32     9.57     0  00:46        2.32
  WS02003111           JUNCTION     1.77     2.35     9.44     0  00:33        2.35
  WS02005155           JUNCTION     1.62     2.40     9.71     0  00:46        2.39
  WS02005154           JUNCTION     1.38     2.25     9.89     0  00:46        2.25
  WS02005193           JUNCTION     1.46     3.22    11.04     0  00:43        2.98
  WS02005196           JUNCTION     1.43     3.31    11.16     0  00:28        2.95
  WS02003067           JUNCTION     0.82     1.49     6.81     0  00:47        1.46
  WS02004401           JUNCTION     1.45     2.48     8.48     0  00:47        2.48
  WS02004402           JUNCTION     1.45     2.50     8.46     0  00:47        2.50
  WS02004403           JUNCTION     1.43     2.51     8.44     0  00:47        2.50
  WS02004404           JUNCTION     1.48     2.57     8.42     0  00:47        2.56
  WS02004406           JUNCTION     1.41     2.52     8.35     0  00:47        2.52
  WS02004409           JUNCTION     1.18     2.31     8.08     0  00:47        2.30
  WS02004410           JUNCTION     1.08     2.10     7.82     0  00:47        2.09
  WS02004411           JUNCTION     1.00     1.88     7.56     0  00:48        1.86
  WS02004412           JUNCTION     0.91     1.65     7.29     0  00:47        1.63
  WS02004413           JUNCTION     0.96     1.56     7.03     0  00:47        1.53
  WS02004405           JUNCTION     1.45     2.55     8.40     0  00:47        2.55
  WS02006109           JUNCTION     1.94     2.64     9.26     0  00:41        2.64
  WS02006110           JUNCTION     1.75     2.49     9.07     0  00:52        2.48
  WS02006111           JUNCTION     1.15     2.00     8.70     0  00:53        1.99
  WS02006112           JUNCTION     1.76     2.68     8.56     0  00:00        2.68
  WS02006113           JUNCTION     1.23     2.00     8.89     0  00:45        1.99
  WS02006115           JUNCTION     1.43     2.40     8.54     0  00:47        2.39
  WS02006116           JUNCTION     1.47     2.47     8.51     0  00:47        2.47
  WS02006230           JUNCTION     2.02     2.65     9.39     0  00:37        2.65
  WS02006231           JUNCTION     1.62     2.19     9.31     0  00:37        2.19
  WS02006232           JUNCTION     1.66     2.18     9.22     0  00:37        2.18
  WS02006234           JUNCTION     1.50     1.96     9.12     0  00:36        1.96
  WS02006235           JUNCTION     1.48     1.93     9.10     0  01:14        1.93
  WS02006238           JUNCTION     1.49     1.93     9.08     0  00:52        1.93
  WS02006240           JUNCTION     1.28     1.63     8.92     0  01:35        1.62
  WS02006242           JUNCTION     1.25     1.55     8.82     0  00:26        1.55
  WS02006243           JUNCTION     1.09     1.40     8.82     0  00:27        1.36
  WS02006245           JUNCTION     1.02     1.27     8.75     0  01:07        1.27
  WS02006247           JUNCTION     1.00     1.23     8.73     0  01:00        1.22
  WS02006248           JUNCTION     0.91     1.10     8.69     0  00:27        1.10
  WS02006249           JUNCTION     0.92     1.09     8.69     0  00:27        1.09
  WS02006239           JUNCTION     1.39     1.79     9.00     0  01:16        1.79
  WS02006251           JUNCTION     1.37     2.21     9.88     0  00:43        2.16
  WS02006252           JUNCTION     0.96     1.50     9.74     0  00:43        1.50
  WS02006253           JUNCTION     1.63     3.26    10.90     0  00:43        3.15
  WS02006256           JUNCTION     1.87     2.35     9.28     0  00:17        2.35
  WS02004138           JUNCTION     0.12     0.14     7.39     0  00:45        0.14
  WS02004139           JUNCTION     0.92     2.55     7.46     0  00:45        2.40
  WS02004407           JUNCTION     0.82     2.04     8.35     0  00:46        1.98
  WS02006228           JUNCTION     2.16     3.03     9.68     0  00:45        3.02
  WS02006229           JUNCTION     2.26     3.23     9.92     0  00:46        3.22
  WS02006280           JUNCTION     0.97     1.75    10.02     0  00:45        1.74
  WS02006284           JUNCTION     1.14     1.95    10.35     0  00:45        1.94
  WS02006287           JUNCTION     0.88     1.74    10.70     0  00:44        1.74
  WS02003091           JUNCTION     2.87     4.43    10.23     0  00:00        3.91
  WS02003203           JUNCTION     2.81     3.83     9.82     0  00:00        3.83
  WS6145               JUNCTION     0.37     2.33    10.44     0  00:47        2.31
  WS6147               JUNCTION     0.31     2.26    10.53     0  00:46        2.18
  WS6150               JUNCTION     0.30     2.23    10.56     0  00:46        2.13
  WS6152               JUNCTION     0.31     2.20    10.54     0  00:46        2.14
  WS6155               JUNCTION     0.27     2.10    10.50     0  00:46        2.10
  WS6156               JUNCTION     0.25     2.05    10.52     0  00:46        2.05
  WS6136               JUNCTION     0.33     1.90    10.85     0  00:47        1.90
  WS6140               JUNCTION     0.42     2.46    10.40     0  00:48        2.45
  WS6142               JUNCTION     0.37     2.34    10.42     0  00:48        2.33
  WS6325               JUNCTION     0.64     2.74    10.39     0  00:48        2.73
  WS6327               JUNCTION     0.50     2.59    10.40     0  00:48        2.56
  WS6329               JUNCTION     0.45     2.52    10.40     0  00:48        2.50
  WS6332               JUNCTION     0.38     2.51    10.54     0  00:45        2.38
  WS6158               JUNCTION     0.23     2.05    10.59     0  00:46        2.05
  WS6335               JUNCTION     0.37     2.60    10.67     0  00:45        2.39
  WS6338               JUNCTION     0.32     2.55    10.75     0  00:45        2.31
  WS6340               JUNCTION     0.28     2.50    10.84     0  00:45        2.20
  WS6342               JUNCTION     0.22     2.50    11.10     0  00:45        1.95
  WS6135               JUNCTION     0.80     2.89    10.39     0  00:48        2.87
  WS6396               JUNCTION     0.50     2.02     9.57     0  00:48        2.01
  WS6399               JUNCTION     0.31     1.37     8.80     0  00:47        1.35
  WS02003082           JUNCTION     1.38     1.93     7.01     0  00:48        1.93
  WS02003077           JUNCTION     0.47     0.85     5.85     0  00:47        0.85
  WS02003080           JUNCTION     0.90     1.31     6.24     0  00:47        1.30
  WS02003083           JUNCTION     1.76     2.41     7.44     0  00:47        2.40
  WS02003084           JUNCTION     1.91     2.60     7.70     0  00:52        2.60
  WS02003085           JUNCTION     1.99     2.72     7.89     0  00:47        2.71
  WS02003086           JUNCTION     2.23     3.02     8.22     0  00:51        3.02
  WS02003087           JUNCTION     2.50     3.36     8.57     0  00:52        3.35
  WS02003088           JUNCTION     2.70     4.14     9.43     0  00:00        4.07
  WS02003089           JUNCTION     2.82     4.34     9.80     0  00:00        4.02
  WS02003090           JUNCTION     3.04     4.12     9.55     0  00:00        4.05
  WS02003081           JUNCTION     1.12     1.61     6.66     0  00:47        1.60
  WS02003122           JUNCTION     2.31     3.30     9.67     0  00:24        3.11
  WS02003187           JUNCTION     2.33     3.11     9.44     0  00:24        3.11
  WS02003188           JUNCTION     2.31     2.97     9.23     0  00:42        2.97
  WS02003190           JUNCTION     2.29     2.84     9.04     0  00:25        2.84
  WS02003193           JUNCTION     2.28     2.85     9.09     0  00:24        2.85
  WS02003195           JUNCTION     2.31     2.93     9.18     0  00:31        2.93
  WS02003196           JUNCTION     2.42     3.12     9.30     0  00:46        3.12
  WS02003198           JUNCTION     2.45     3.21     9.39     0  00:45        3.20
  WS02003200           JUNCTION     2.22     2.99     9.43     0  00:31        2.93
  WS02003201           JUNCTION     2.49     3.22     9.36     0  00:31        3.22
  WS02003202           JUNCTION     2.63     4.17    10.23     0  00:00        3.48
  WS02004041           JUNCTION     0.66     0.98     5.34     0  00:48        0.98
  WSA6400              JUNCTION     1.13     2.42     8.26     0  00:48        2.41
  WS6400               JUNCTION     0.47     1.69     8.35     0  00:48        1.68
  WSF208               JUNCTION     0.83     1.95     8.04     0  00:47        1.93
  WSF207               JUNCTION     0.73     1.70     7.83     0  00:47        1.68
  WSF206               JUNCTION     0.81     1.74     7.68     0  00:47        1.74
  WSF205               JUNCTION     0.74     1.61     7.51     0  00:48        1.61
  WSF204               JUNCTION     1.26     2.17     7.33     0  00:47        2.16
  WSF203               JUNCTION     0.64     1.37     7.07     0  00:47        1.36
  WSF202               JUNCTION     0.56     1.21     6.93     0  00:48        1.20
  WSF201               JUNCTION     0.48     1.05     6.78     0  00:48        1.04
  WSF200               JUNCTION     0.62     1.46     6.69     0  00:47        1.46
  HS02004901           JUNCTION     0.71     1.42    11.24     0  00:41        1.42
  HS02004881           JUNCTION     0.56     2.15    11.18     0  00:43        1.88
  HS02004876           JUNCTION     0.69     2.18    11.21     0  00:43        2.13
  HS02004870           JUNCTION     0.59     2.10    11.39     0  00:43        2.03
  HS02004862           JUNCTION     0.59     2.00    11.38     0  00:43        2.00
  HS02004856           JUNCTION     0.62     2.07    11.50     0  00:43        2.07
  HS02004852           JUNCTION     0.57     2.12    11.63     0  00:43        2.00
  HS02004848           JUNCTION     0.54     2.06    11.66     0  00:43        1.93
  HS02004842           JUNCTION     0.85     2.22    11.49     0  00:43        2.22
  HS02004837           JUNCTION     0.57     2.04    11.62     0  00:41        1.92
  HS02004830           JUNCTION     0.64     2.03    11.50     0  00:43        1.99
  HS02004824           JUNCTION     0.69     2.01    11.41     0  00:43        2.01
  HS02004817           JUNCTION     1.17     2.43    11.28     0  00:43        2.41
  HS02004807           JUNCTION     0.85     1.92    11.09     0  00:43        1.92
  HS02004802           JUNCTION     0.86     1.81    10.94     0  00:44        1.80
  HS02004799           JUNCTION     0.95     1.76    10.97     0  00:41        1.76
  HS02004792           JUNCTION     0.74     1.60    11.12     0  00:39        1.60
  HS02004788           JUNCTION     0.56     1.42    11.32     0  00:41        1.42
  HS02004785           JUNCTION     0.60     1.49    11.39     0  00:41        1.40
  HS02004777           JUNCTION     0.73     1.48    11.28     0  00:41        1.48
  HS02004770           JUNCTION     0.71     1.42    11.25     0  00:41        1.42
  HS02004480           JUNCTION     0.85     1.67    10.91     0  00:43        1.64
  HS02004479           JUNCTION     0.88     1.69    10.89     0  00:41        1.67
  HS02004478           JUNCTION     0.74     1.59    10.82     0  00:45        1.59
  HS02004053           JUNCTION     0.27     1.90    10.67     0  00:46        1.09
  HS02004052           JUNCTION     0.34     1.50    11.14     0  00:46        1.39
  HS02004049           JUNCTION     0.20     1.06    11.75     0  00:46        1.04
  HS02004048           JUNCTION     0.47     1.70    12.60     0  00:44        1.70
  HS02004046           JUNCTION     0.42     1.72    13.44     0  00:45        1.48
  HS02004043           JUNCTION     0.20     1.76    14.46     0  00:45        1.25
  HS02004041           JUNCTION     0.13     0.33    15.78     0  00:46        0.33
  HS02004038           JUNCTION     0.13     0.32    19.01     0  00:47        0.32
  HS02004036           JUNCTION     0.00     0.00    22.46     0  00:00        0.00
  HS02004034           JUNCTION     0.00     0.00    26.83     0  00:00        0.00
  HS02004028           JUNCTION     0.18     0.51    37.36     0  00:44        0.51
  HS02004027           JUNCTION     0.15     0.34    36.47     0  00:44        0.34
  HS02004026           JUNCTION     0.15     0.35    35.75     0  00:45        0.35
  HS02004024           JUNCTION     0.15     0.42    34.64     0  00:45        0.41
  HS02004022           JUNCTION     0.21     0.80    33.84     0  00:44        0.80
  HS02004021           JUNCTION     0.25     0.81    32.54     0  00:43        0.81
  HS02004019           JUNCTION     0.31     0.80    31.76     0  00:42        0.80
  HS02004018           JUNCTION     0.21     0.60    33.81     0  00:44        0.60
  HS02004017           JUNCTION     0.19     0.53    34.37     0  00:44        0.53
  HS02004013           JUNCTION     0.12     0.39    35.52     0  00:47        0.39
  HS02004010           JUNCTION     0.05     0.15    38.01     0  00:46        0.14
  HS02003174           JUNCTION     0.18     0.43     5.97     0  00:47        0.43
  HS02003171           JUNCTION     0.19     0.48     6.16     0  00:46        0.48
  HS02003170           JUNCTION     0.24     0.46     6.91     0  00:47        0.46
  HS02003168           JUNCTION     0.12     0.30     6.80     0  00:47        0.30
  HS02003166           JUNCTION     0.23     0.47     6.94     0  00:47        0.47
  HS02003162           JUNCTION     0.21     0.42    30.67     0  00:42        0.42
  HS02003160           JUNCTION     0.16     0.36    28.42     0  00:46        0.36
  HS02003150           JUNCTION     0.17     0.38    26.40     0  00:46        0.38
  HS02003148           JUNCTION     0.19     0.49    22.23     0  00:46        0.49
  HS02003145           JUNCTION     0.25     0.81    14.68     0  00:45        0.81
  HS02003143           JUNCTION     0.36     0.80    13.27     0  00:39        0.80
  HS02003138           JUNCTION     0.20     0.45     6.94     0  01:36        0.45
  HS02003136           JUNCTION     1.45     2.28    10.00     0  00:00        2.28
  HS02003125           JUNCTION     1.55     2.39     9.84     0  00:33        2.29
  HS02003122           JUNCTION     1.60     2.51     9.94     0  00:33        2.38
  HS02003119           JUNCTION     1.36     2.57    10.29     0  00:33        2.18
  HS02003116           JUNCTION     1.04     2.43    10.55     0  00:33        1.78
  HS02003111           JUNCTION     0.47     0.87     9.89     0  00:46        0.87
  HS02003108           JUNCTION     0.37     1.00    10.11     0  00:42        0.83
  HS02003100           JUNCTION     0.26     0.81    10.04     0  00:46        0.76
  HS02003088           JUNCTION     0.22     0.82    10.12     0  00:46        0.76
  HS02003084           JUNCTION     0.10     0.70    10.13     0  00:46        0.63
  HS02003079           JUNCTION     0.06     0.57    10.09     0  00:47        0.57
  HS02003077           JUNCTION     0.02     0.36    10.10     0  00:47        0.35
  HS02003065           JUNCTION     0.65     1.63    10.86     0  00:46        1.62
  HS02003056           JUNCTION     0.69     1.74    10.69     0  00:44        1.73
  HS02003053           JUNCTION     0.47     1.66    10.96     0  00:37        1.58
  HS02003042           JUNCTION     0.32     1.69    11.35     0  00:39        1.35
  HS02003039           JUNCTION     0.35     1.73    11.39     0  00:44        1.42
  HS02003036           JUNCTION     0.18     1.41    11.47     0  00:44        1.18
  HS02003028           JUNCTION     0.29     1.40    11.14     0  00:44        1.40
  HS02003021           JUNCTION     0.31     1.55    10.92     0  00:44        1.49
  HS02003018           JUNCTION     0.32     1.48    10.69     0  00:44        1.48
  HS02003017           JUNCTION     0.32     1.48    10.64     0  00:44        1.48
  HS02003013           JUNCTION     0.32     1.47    10.52     0  00:44        1.42
  HS02003010           JUNCTION     0.35     1.43    10.23     0  00:44        1.30
  HS02003007           JUNCTION     0.31     1.21     9.83     0  00:44        1.09
  HS02003004           JUNCTION     0.40     1.05     9.37     0  00:41        0.98
  HS02003001           JUNCTION     0.11     0.29     8.58     0  00:47        0.29
  YS02001738           JUNCTION     0.00     0.00     8.89     0  00:00        0.00
  YS02001739           JUNCTION     0.00     0.00     8.37     0  00:00        0.00
  YS02001742           JUNCTION     0.00     0.00     8.49     0  00:00        0.00
  YS02001745           JUNCTION     0.15     0.35     7.87     0  00:47        0.35
  YS02001748           JUNCTION     0.17     0.52     7.60     0  00:49        0.49
  YS02001751           JUNCTION     0.17     0.77     7.65     0  00:49        0.77
  YS02001754           JUNCTION     0.19     1.21     7.82     0  00:48        0.97
  YS02001762           JUNCTION     0.39     1.61     8.01     0  00:47        1.41
  YS02001765           JUNCTION     0.37     1.68     8.13     0  00:47        1.43
  YS02001767           JUNCTION     0.39     1.80     8.29     0  00:47        1.49
  YS02001770           JUNCTION     0.45     1.95     8.44     0  00:47        1.64
  YS02001774           JUNCTION     0.52     2.05     8.47     0  00:47        1.72
  YS02001779           JUNCTION     0.27     1.68     8.37     0  00:47        1.45
  YS02001882           JUNCTION     0.76     1.80     8.52     0  00:42        1.63
  YS02001884           JUNCTION     0.86     1.87     8.48     0  00:42        1.73
  YS02001759           JUNCTION     0.39     1.57     7.94     0  00:47        1.36
  YS02001887           JUNCTION     0.93     1.88     8.41     0  00:42        1.82
  YS02001890           JUNCTION     0.96     1.81     8.32     0  00:42        1.81
  YS02001898           JUNCTION     0.73     1.77     8.51     0  00:42        1.56
  YS02001901           JUNCTION     0.84     1.79     8.40     0  00:42        1.67
  YS02001904           JUNCTION     0.82     1.70     8.33     0  00:42        1.63
  YS02001907           JUNCTION     1.13     1.96     8.25     0  00:42        1.96
  YS02001910           JUNCTION     0.96     2.10     8.61     0  00:42        1.96
  YS02001915           JUNCTION     0.79     2.00     8.72     0  00:42        1.92
  YS02001918           JUNCTION     0.52     1.81     8.88     0  00:43        1.64
  YS02001920           JUNCTION     0.61     2.14     9.15     0  00:45        1.76
  YS02001923           JUNCTION     0.43     2.03     9.29     0  00:45        1.55
  YS02001926           JUNCTION     0.43     1.90     9.35     0  00:44        1.79
  YS02001929           JUNCTION     0.29     1.78     9.47     0  00:45        1.15
  YS02001932           JUNCTION     0.19     1.77     9.57     0  00:45        1.05
  YS02001935           JUNCTION     0.14     1.75     9.68     0  00:45        0.95
  YS02001757           JUNCTION     0.38     1.61     7.87     0  00:47        1.28
  YS02001895           JUNCTION     0.73     1.69     8.44     0  00:42        1.56
  YS02005679           JUNCTION     0.00     0.00    10.24     0  00:00        0.00
  YS02005559           JUNCTION     0.09     0.18    10.13     0  00:49        0.18
  YS02005651           JUNCTION     0.06     0.17    10.94     0  00:47        0.17
  YS02005670           JUNCTION     0.07     0.20    10.65     0  00:46        0.20
  YS02005547           JUNCTION     0.05     0.13    10.67     0  00:46        0.13
  YS02005549           JUNCTION     0.07     0.20    11.11     0  00:46        0.20
  YS02005550           JUNCTION     0.09     0.23    10.85     0  00:47        0.23
  YS02005551           JUNCTION     0.05     0.13    10.50     0  00:47        0.13
  YS02005553           JUNCTION     0.11     0.25    10.61     0  00:48        0.25
  YS02005554           JUNCTION     0.06     0.12    10.36     0  00:48        0.12
  YS02005556           JUNCTION     0.11     0.24    10.30     0  00:49        0.24
  YS02005557           JUNCTION     0.06     0.13    10.09     0  00:49        0.12
  YS02005560           JUNCTION     0.07     0.14     9.88     0  00:49        0.14
  YS02005562           JUNCTION     0.10     0.22     9.96     0  00:48        0.22
  YS02005563           JUNCTION     0.06     0.12     9.78     0  00:47        0.12
  YS02005565           JUNCTION     0.09     0.18     9.89     0  00:48        0.18
  YS02005566           JUNCTION     0.08     0.15     9.55     0  00:48        0.15
  YS02005568           JUNCTION     0.11     0.24     9.74     0  00:48        0.24
  YS02005569           JUNCTION     0.09     0.17     9.50     0  00:48        0.17
  YS02005598           JUNCTION     0.21     1.07    10.91     0  00:43        1.07
  YS02005600           JUNCTION     0.21     1.02    10.68     0  00:43        1.02
  YS02005602           JUNCTION     0.48     2.15    10.43     0  00:43        2.15
  YS02005603           JUNCTION     0.16     1.16     9.29     0  00:43        0.58
  YS02005609           JUNCTION     0.07     0.18     9.07     0  00:47        0.18
  YS02005653           JUNCTION     0.11     0.70    11.67     0  00:45        0.62
  YS02005654           JUNCTION     0.12     0.62    11.37     0  00:45        0.49
  YS02005655           JUNCTION     0.05     0.13    10.77     0  00:47        0.13
  YS02005595           JUNCTION     0.27     1.36    11.04     0  00:43        1.36
  YS02005658           JUNCTION     0.10     0.29    11.20     0  00:47        0.29
  YS02005659           JUNCTION     0.06     0.14    10.80     0  00:47        0.14
  YS02005661           JUNCTION     0.13     0.53    11.24     0  00:46        0.53
  YS02005662           JUNCTION     0.05     0.13    10.75     0  00:47        0.13
  YS02005664           JUNCTION     0.13     0.43    11.01     0  00:45        0.41
  YS02005665           JUNCTION     0.05     0.11    10.67     0  00:47        0.11
  YS02005668           JUNCTION     0.05     0.11    10.27     0  00:47        0.11
  YS02005667           JUNCTION     0.26     0.52    10.54     0  00:46        0.52
  YS02005571           JUNCTION     0.16     0.40     9.89     0  00:46        0.38
  YS02005572           JUNCTION     0.11     0.22     9.58     0  00:49        0.22
  YS02005576           JUNCTION     0.10     0.21     9.96     0  00:49        0.21
  YS02005577           JUNCTION     0.09     0.19     9.67     0  00:49        0.19
  YS02005579           JUNCTION     0.19     0.59    10.21     0  00:49        0.58
  YS02005580           JUNCTION     0.11     0.27     9.80     0  00:49        0.27
  YS02005582           JUNCTION     0.27     0.86    10.94     0  00:45        0.86
  YS02005583           JUNCTION     0.14     0.66    10.66     0  00:45        0.41
  YS02005612           JUNCTION     0.37     1.09     9.21     0  00:47        1.09
  YS02005615           JUNCTION     0.05     0.14    11.63     0  00:46        0.14
  YS02005616           JUNCTION     0.04     0.12    10.94     0  00:46        0.11
  YS02005618           JUNCTION     0.08     0.23    11.09     0  00:46        0.23
  YS02005619           JUNCTION     0.05     0.14    10.69     0  00:46        0.14
  YS02005621           JUNCTION     0.09     0.27    11.38     0  00:46        0.27
  YS02005622           JUNCTION     0.04     0.11    11.08     0  00:46        0.11
  YS02005625           JUNCTION     0.04     0.10    11.11     0  00:46        0.10
  YS02005627           JUNCTION     0.11     0.43    11.36     0  00:45        0.37
  YS02005628           JUNCTION     0.04     0.11    11.01     0  00:46        0.11
  YS02005630           JUNCTION     0.10     0.44    11.52     0  00:46        0.37
  YS02005631           JUNCTION     0.05     0.13    11.00     0  00:47        0.13
  YS02005633           JUNCTION     0.09     0.29    11.42     0  00:46        0.29
  YS02005634           JUNCTION     0.05     0.14    10.97     0  00:47        0.14
  YS02005636           JUNCTION     0.11     0.52    11.51     0  00:45        0.47
  YS02005637           JUNCTION     0.06     0.16    10.92     0  00:47        0.16
  YS02005639           JUNCTION     0.10     0.43    11.06     0  00:46        0.37
  YS02005640           JUNCTION     0.06     0.16    10.48     0  00:47        0.16
  YS02005642           JUNCTION     0.08     0.21    11.04     0  00:47        0.21
  YS02005644           JUNCTION     0.12     0.60    11.71     0  00:46        0.59
  YS02005645           JUNCTION     0.08     0.19    11.00     0  00:47        0.19
  YS02005647           JUNCTION     0.22     1.03    11.92     0  00:45        1.03
  YS02005648           JUNCTION     0.09     0.23    11.02     0  00:46        0.23
  YS02005650           JUNCTION     0.13     0.55    11.43     0  00:46        0.53
  YS02005671           JUNCTION     0.04     0.10    10.32     0  00:47        0.10
  YS02005673           JUNCTION     0.08     0.21    10.56     0  00:47        0.21
  YS02005674           JUNCTION     0.05     0.13    10.03     0  00:47        0.13
  YS02005676           JUNCTION     0.00     0.00    10.24     0  00:00        0.00
  YS02005680           JUNCTION     0.05     0.14    10.24     0  00:47        0.14
  YS02005682           JUNCTION     0.00     0.00    10.06     0  00:00        0.00
  YS02005683           JUNCTION     0.03     0.08     9.98     0  00:47        0.08
  YS02005376           JUNCTION     0.72     1.01    11.10     0  00:30        1.01
  YS02005378           JUNCTION     1.26     1.62    11.14     0  00:59        1.61
  YS02005381           JUNCTION     1.15     1.57    11.20     0  00:30        1.57
  YS02005624           JUNCTION     0.22     0.49    11.37     0  00:46        0.49
  YS02005384           JUNCTION     0.37     0.80    10.46     0  00:30        0.68
  YS02005677           JUNCTION     0.06     0.15    10.23     0  00:47        0.15
  YSB1105              JUNCTION     0.27     0.55    10.03     0  00:45        0.54
  YSB1106              JUNCTION     0.27     1.95    11.79     0  00:45        0.77
  YSB1109              JUNCTION     0.34     1.89    11.83     0  00:45        1.08
  YSB1112              JUNCTION     0.35     1.95    12.08     0  00:45        1.30
  YSB1115              JUNCTION     0.33     1.90    12.20     0  00:45        1.29
  YSB1118              JUNCTION     0.34     1.80    12.34     0  00:45        1.44
  YSB1121              JUNCTION     0.41     1.70    12.37     0  00:45        1.70
  YSB1124              JUNCTION     0.27     1.60    12.43     0  00:45        1.55
  YSB1128              JUNCTION     0.39     1.85    12.43     0  00:42        1.50
  YSB1132              JUNCTION     0.44     1.90    12.35     0  00:42        1.62
  YSB1228              JUNCTION     0.06     0.16    11.00     0  00:46        0.16
  YSB1202              JUNCTION     0.84     1.50    12.39     0  00:40        1.46
  YSB1135              JUNCTION     0.56     2.00    12.26     0  00:42        1.81
  YSB1138              JUNCTION     0.65     1.90    12.07     0  00:42        1.90
  YSB1141              JUNCTION     0.70     2.00    11.83     0  00:42        1.86
  YSB1145              JUNCTION     0.71     2.00    11.69     0  00:42        1.84
  YSB1148              JUNCTION     0.79     2.00    11.50     0  00:42        1.89
  YSB1151              JUNCTION     0.98     2.09    11.32     0  00:42        2.00
  YSB1154              JUNCTION     1.12     2.10    11.16     0  00:42        2.10
  YSB1198              JUNCTION     0.21     1.60    12.39     0  00:42        1.60
  YSB1192              JUNCTION     0.40     1.90    12.17     0  00:42        1.87
  YSB6556              JUNCTION     0.96     1.80    10.97     0  00:42        1.80
  YSB1205              JUNCTION     1.01     1.65    12.35     0  00:40        1.65
  YSB1209              JUNCTION     0.99     1.65    12.22     0  00:40        1.65
  YSB1212              JUNCTION     0.88     1.60    12.13     0  00:40        1.60
  YSB1215              JUNCTION     0.89     1.70    12.05     0  00:40        1.69
  YSB1218              JUNCTION     0.88     1.75    11.94     0  00:45        1.75
  YSB1221              JUNCTION     0.85     1.71    11.68     0  00:40        1.58
  YSB1224              JUNCTION     0.75     1.33    11.18     0  00:48        1.33
  YSB1195              JUNCTION     0.35     1.90    12.28     0  00:42        1.90
  YSB1189              JUNCTION     0.50     1.80    11.96     0  00:42        1.80
  YSB1186              JUNCTION     0.55     1.93    11.80     0  00:42        1.91
  YSB1183              JUNCTION     0.68     2.05    11.64     0  00:42        2.04
  YSB1180              JUNCTION     0.71     1.95    11.46     0  00:42        1.95
  YSB1177              JUNCTION     0.97     2.05    11.24     0  00:42        2.05
  YSB1174              JUNCTION     1.02     1.95    11.06     0  00:45        1.95
  YSB1171              JUNCTION     1.19     1.95    10.85     0  00:41        1.95
  YS02006553           JUNCTION     1.13     2.03     8.31     0  00:43        1.98
  YS02006561           JUNCTION     0.40     1.28     7.94     0  00:43        0.92
  YS02006562           JUNCTION     0.91     1.93     8.44     0  00:43        1.78
  YS02006556           JUNCTION     1.10     2.08     8.40     0  00:43        1.97
  YS02006558           JUNCTION     1.14     2.16     8.43     0  00:43        2.04
  YS6132               JUNCTION     0.55     2.70    10.02     0  00:50        1.84
  YS6137               JUNCTION     0.27     2.40    10.19     0  00:50        1.58
  YS6189               JUNCTION     0.37     2.53    10.32     0  00:50        1.73
  YS6184               JUNCTION     0.37     2.57    10.46     0  00:48        1.91
  YS6179               JUNCTION     0.31     2.56    10.54     0  00:48        2.11
  YS6176               JUNCTION     0.22     2.34    10.54     0  00:48        2.02
  YS6171               JUNCTION     0.24     2.10    10.51     0  00:47        2.01
  YS6168               JUNCTION     0.26     2.00    10.51     0  00:48        1.97
  YS6164               JUNCTION     0.08     1.90    10.63     0  00:48        1.88
  YS6162               JUNCTION     0.13     2.10    10.75     0  00:47        2.00
  YS6187               JUNCTION     0.41     2.50    10.28     0  00:50        1.75
  YS6363               JUNCTION     0.32     2.89    10.68     0  00:50        2.33
  YS6360               JUNCTION     0.43     2.73    10.53     0  00:48        2.34
  YS6354               JUNCTION     0.41     2.60    10.75     0  00:50        2.23
  YS6351               JUNCTION     0.49     2.50    10.71     0  00:50        2.39
  YS6350               JUNCTION     0.55     2.50    10.72     0  00:46        2.50
  YS6348               JUNCTION     0.50     2.45    10.85     0  00:45        2.45
  YS6344               JUNCTION     0.32     2.26    10.86     0  00:49        2.26
  YS6375               JUNCTION     0.08     0.29     8.71     0  00:46        0.29
  YS6377               JUNCTION     0.15     0.35     8.71     0  00:47        0.35
  YS6381               JUNCTION     0.16     0.40     8.53     0  00:47        0.40
  YS6386               JUNCTION     0.18     0.45     8.43     0  00:47        0.45
  YS6390               JUNCTION     0.40     0.59     8.28     0  00:47        0.59
  YS6394               JUNCTION     0.10     0.23     8.15     0  00:47        0.23
  YS6404               JUNCTION     0.51     3.00    10.23     0  00:46        1.31
  YS6401               JUNCTION     0.17     0.41     7.63     0  00:48        0.40
  YS02004319           JUNCTION     0.25     1.18    20.80     0  00:42        1.18
  YS02004320           JUNCTION     0.00     0.00    22.64     0  00:56        0.00
  YS02004321           JUNCTION     0.00     0.00    26.80     0  00:51        0.00
  YS02004307           JUNCTION     0.15     0.52    11.05     0  00:47        0.52
  YS02004309           JUNCTION     0.73     1.55    13.07     0  00:35        1.55
  YS02004312           JUNCTION     0.41     1.48    14.91     0  00:41        1.48
  YS02004314           JUNCTION     0.29     1.28    16.99     0  00:42        1.28
  YS02004316           JUNCTION     0.29     1.36    19.13     0  00:42        1.36
  YS02001783           JUNCTION     0.63     1.52     7.66     0  00:43        1.25
  YS02001784           JUNCTION     0.60     1.28     7.35     0  00:43        1.12
  YS02001786           JUNCTION     0.49     1.07     7.10     0  00:43        0.88
  YS02001788           JUNCTION     0.36     0.63     6.60     0  00:45        0.62
  YS02001790           JUNCTION     0.42     0.72     6.36     0  00:57        0.71
  YS02001791           JUNCTION     0.25     0.44     5.91     0  00:51        0.43
  YS02001793           JUNCTION     0.13     0.31     5.14     0  00:45        0.31
  YS02003309           JUNCTION     0.68     1.21     9.77     0  00:28        1.05
  YS02003306           JUNCTION     0.80     1.16     9.60     0  00:28        1.16
  YS02003269           JUNCTION     0.14     0.17     7.76     0  00:42        0.17
  YS02003272           JUNCTION     0.40     1.62     9.35     0  00:29        0.58
  YS02003278           JUNCTION     0.79     1.43     9.35     0  00:29        1.21
  YS02003281           JUNCTION     0.89     1.39     9.47     0  00:41        1.39
  YS02003284           JUNCTION     0.97     1.40     9.41     0  00:29        1.40
  YS02003287           JUNCTION     0.93     1.27     9.34     0  00:29        1.27
  YS02003290           JUNCTION     0.79     1.12     9.40     0  00:29        1.11
  YS02003294           JUNCTION     0.94     1.24     9.42     0  00:29        1.24
  YS02003275           JUNCTION     0.59     1.30     9.21     0  00:29        0.91
  YS02003297           JUNCTION     0.92     1.22     9.43     0  00:29        1.22
  YS02003300           JUNCTION     0.86     1.15     9.42     0  00:28        1.15
  YS02003303           JUNCTION     0.85     1.14     9.46     0  00:28        1.14
  YSB1227              JUNCTION     0.01     0.10    11.00     0  00:46        0.10
  CaochengRainPumpOutfall1 OUTFALL      0.00     0.00     6.00     0  00:00        0.00
  JiankangRainPumpOutfall2 OUTFALL      0.00     0.00     6.00     0  00:00        0.00
  JiankangRainPumpOutfall1 OUTFALL      0.00     0.00     6.00     0  00:00        0.00
  CaochengRainPumpOutfall2 OUTFALL      0.00     0.00     6.00     0  00:00        0.00
  YS02005684           OUTFALL      0.03     0.08     8.49     0  00:47        0.08
  YS02005681           OUTFALL      0.05     0.13     9.35     0  00:47        0.13
  YS02005678           OUTFALL      0.06     0.15     8.68     0  00:47        0.15
[...]
  WS02003090WS02003089        1.73      1.73      1.75      1.81         0.01
  WS02003089WS02003088        1.72      1.73      1.75      1.66         1.66
  WS02003088WS02003087        1.75      1.77      1.75      1.81         1.75
  WS02003087WS02003086        1.69      1.69      1.77      1.74         0.01
  WS02003086WS02003085        1.69      1.69      1.73      1.79         0.01
  WS02003085WS02003084        1.69      1.69      1.70      1.71         1.68
  WS02003084WS02003083        1.69      1.70      1.69      1.88         1.69
  WS02003083WS02003082        1.67      1.67      1.71      1.79         0.01
  WS02003082WS02003081        1.67      1.67      1.67      1.77         1.67
  WS02003081WS02003080        1.66      1.67      1.66      1.68         1.66
  WS02003080WS02003077        0.57      0.57      1.67      1.67         0.01
  WS02003073WS02003076        0.68      0.68      1.45      0.20         0.01
  HS02004901HS02004770        0.70      0.70      0.70      0.01         0.01
  HS02004876HS02004881        0.72      0.74      0.72      1.62         0.72
  HS02004870HS02004876        0.65      0.65      0.74      0.01         0.01
  HS02004049HS02004052        0.12      0.12      0.15      0.01         0.01
  HS02004048HS02004049        0.22      0.33      0.22      0.40         0.22
  HS02004046HS02004048        0.14      0.14      0.33      0.01         0.01
  HS02004043HS02004046        0.09      0.09      0.16      0.01         0.01
  HS02004041HS02004043        0.01      0.01      0.09      0.01         0.01
  HS02004028HS02004027        0.01      0.09      0.01      0.11         0.01
  HS02003143HS02003065        0.52      0.52      0.75      0.01         0.01
  HS02004842HS02004848        0.56      0.56      0.78      0.01         0.01
  HS02004837HS02004842        0.59      0.59      0.78      0.01         0.01
  HS02004830HS02004837        0.59      0.59      0.65      0.01         0.01
  HS02004824HS02004830        0.65      0.65      0.70      0.01         0.01
  HS02004817HS02004824        0.70      0.70      1.55      0.01         0.01
  HS02004770HS02004777        0.70      0.70      0.71      0.01         0.01
  HS02004799HS02004480        0.87      0.87      0.96      0.98         0.01
  HS02004792HS02004799        0.81      0.81      0.96      0.01         0.01
  HS02004788HS02004792        0.64      0.64      0.81      0.01         0.01
  HS02004785HS02004788        0.64      0.65      0.64      1.57         0.58
  HS02004777HS02004785        0.65      0.65      0.71      0.01         0.01
  HS02004480HS02004478        0.81      0.87      0.81      1.69         0.81
  HS02004479HS02004480        0.88      0.88      0.92      0.01         0.01
  HS02003013HS02003010        0.31      0.31      0.36      0.18         0.18
  HS02003010HS02003007        0.29      0.30      0.31      0.34         0.29
  HS02003007HS02003004        0.31      0.31      0.39      0.15         0.15
  HS02003004HS02003001        0.01      0.39      0.01      1.08         0.01
  HS02003065HS02003056        0.74      0.74      0.90      0.01         0.01
  HS02003042HS02003053        0.27      0.27      0.69      0.01         0.01
  HS02003028HS02003021        0.19      0.19      0.25      0.01         0.01
  HS02003021HS02003018        0.28      0.28      0.30      0.08         0.08
  HS02003018HS02003017        0.30      0.30      0.31      0.13         0.10
  HS02003017HS02003013        0.31      0.31      0.31      0.24         0.22
  HS02004862HS02004870        0.62      0.62      0.65      0.21         0.20
  HS02004848HS02004852        0.56      0.56      0.59      0.02         0.01
  HS02004856HS02004862        0.57      0.57      0.62      0.01         0.01
  HS02004852HS02004856        0.59      0.59      0.62      0.02         0.01
  HS02004024HS02004022        0.01      0.01      0.13      0.01         0.01
  HS02004022HS02004021        0.13      0.13      0.23      0.01         0.01
  HS02004021HS02004019        0.23      0.23      0.31      0.16         0.16
  HS02004019HS02003162        0.01      0.31      0.01      0.34         0.01
  HS02004052HS02004053        0.14      0.15      0.14      0.16         0.14
  HS02003122HS02003125        1.49      1.49      1.49      0.16         0.19
  HS02003119HS02003122        1.48      1.48      1.49      0.01         0.01
  HS02003116HS02003119        1.28      1.28      1.48      0.01         0.01
  HS02003111HS02003116        0.01      0.01      1.37      0.01         0.01
  HS02004018HS02004019        0.17      0.17      0.31      0.01         0.01
  HS02003056HS02003136        0.77      0.77      1.51      0.01         0.01
  HS02004017HS02004018        0.15      0.15      0.17      0.01         0.01
  HS02004013HS02004017        0.01      0.01      0.15      0.01         0.01
  HS02004802HS02004478        0.82      0.82      0.89      0.18         0.01
  HS02004478WS02006287        0.68      0.68      0.87      0.01         0.01
  HS02003079HS02003084        0.01      0.01      0.02      0.01         0.01
  HS02003148HS02003145        0.01      0.01      0.13      0.01         0.01
  HS02003145HS02003143        0.13      0.13      0.49      0.11         0.10
  HS02003136WS02003203        1.52      1.52      1.63      0.01         0.01
  HS02003084HS02003088        0.03      0.03      0.06      0.01         0.01
  HS02003108HS02003111        0.15      0.15      0.37      0.01         0.01
  HS02003100HS02003108        0.08      0.08      0.15      0.01         0.01
  HS02003088HS02003100        0.07      0.07      0.08      0.01         0.01
  HS02004817HS02004807        0.86      0.86      1.55      0.01         0.01
  HS02004807HS02004802        0.86      0.86      0.88      0.33         0.33
  HS02003053HS02003056        0.69      0.69      0.90      0.01         0.01
  HS02003039HS02003042        0.34      0.35      0.37      0.18         0.02
  HS02003036HS02003039        0.14      0.14      0.19      0.01         0.01
  YS02001759YS02001757        0.08      0.09      0.08      0.14         0.08
  YS02001762YS02001759        0.09      0.10      0.09      0.15         0.09
  YS02001765YS02001762        0.09      0.09      0.10      0.06         0.05
  YS02001770YS02001767        0.10      0.12      0.10      0.65         0.10
  YS02001774YS02001770        0.11      0.11      0.13      0.01         0.01
  YS02001779YS02001774        0.07      0.07      0.13      0.01         0.01
  YS02001767YS02001765        0.09      0.10      0.09      0.17         0.09
  YS02006561YS02001783        0.44      0.44      0.64      0.01         0.01
  YS02001783YS02001784        0.61      0.64      0.61      0.82         0.61
  YS02001784YS02001785        0.50      0.61      0.50      1.22         0.50
  YS02001790YS02001791        0.01      0.01      0.01      0.60         0.01
  YS02001910YS02001907        0.67      0.67      0.89      0.01         0.01
  YS02001786YS02001788        0.01      0.50      0.01      0.99         0.01
  YS02001915YS02001910        0.58      0.58      0.67      0.01         0.01
  YS02001918YS02001915        0.48      0.48      0.58      0.01         0.01
  YS02001923YS02001920        0.41      0.41      0.50      0.01         0.01
  YS02001926YS02001923        0.15      0.15      0.18      0.01         0.01
  YS02001929YS02001926        0.03      0.03      0.18      0.01         0.01
  YS02001932YS02001929        0.01      0.01      0.03      0.01         0.01
  YS02001935YS02001932        0.01      0.01      0.01      0.01         0.01
  YS02001920YS02001918        0.48      0.48      0.50      0.01         0.01
  YS02003290YS02003287        1.59      1.59      1.64      0.01         0.01
  YS02003294YS02003290        1.59      1.59      1.68      0.04         0.01
  YS02003297YS02003294        1.66      1.66      1.67      0.36         0.31
  YS02003275YS02003272        1.38      1.55      1.38      1.61         1.38
  YS02003300YS02003297        1.59      1.59      1.64      0.01         0.01
  YS02003303YS02003300        1.57      1.57      1.61      0.01         0.01
  YS02005582YS02005583        0.21      0.42      0.21      0.60         0.21
  YS02003272YS02003269        0.01      1.49      0.01      1.61         0.01
  YS02003278YS02003275        1.58      1.65      1.58      1.74         1.58
  YS02003281YS02003278        1.62      1.62      1.64      1.59         1.58
  YS02003284YS02003281        1.62      1.62      1.64      1.04         0.34
  YS02003287YS02003284        1.63      1.63      1.66      0.01         0.06
  YS02003306YS02003303        1.56      1.56      1.59      0.49         0.49
  YS02003309YS02003306        1.46      1.46      1.56      0.01         0.01
  YS02005600YS02005375        0.20      0.20      0.22      0.22         0.20
  YS02005384YS02005593        0.01      1.26      0.01      1.32         0.01
  YS02005595YS02005596        0.23      0.24      0.23      0.26         0.23
  YS02005612YS02005613        0.04      0.04      0.90      0.22         0.01
  YS02005553YS02005554        0.01      0.01      0.01      0.10         0.01
  YS02005556YS02005557        0.01      0.01      0.01      0.11         0.01
  YS02005562YS02005563        0.01      0.01      0.01      0.01         0.01
  YS02005571YS02005572        0.01      0.20      0.01      0.38         0.01
  YS02005579YS02005580        0.01      0.29      0.01      0.46         0.01
  YS02005580YS02005581        0.01      0.01      0.01      0.12         0.01
  YS02005583YS02005584        0.21      0.21      0.23      0.23         0.21
  YS02006553YS02006556        0.78      0.78      0.94      0.01         0.01
  YS02006556YS02006558        0.85      0.85      0.98      0.01         0.01
  YSB6556YSB1171              1.00      1.00      1.62      0.01         0.01
  YSB1202YSB1205              1.24      1.24      1.34      0.01         0.01
  YSB1205YSB1209              1.34      1.34      1.35      1.04         0.98
  YSB1209YSB1212              1.28      1.35      1.28      1.47         1.28
  YSB1212YSB1215              1.27      1.28      1.31      0.69         0.68
  YSB1215YSB1218              1.31      1.31      1.34      0.78         0.77
  YSB1218YSB1221              1.24      1.24      1.37      1.00         1.00
  YSB1221YSB1224              1.37      1.37      1.38      1.23         1.22
  YSB1224YSB1105              0.76      1.41      0.76      1.47         0.76
  YSB1189YSB1186              0.58      0.58      0.70      0.17         0.17
  YS02001907YS02006553        1.22      1.22      1.35      0.01         0.01
  YS02006562YS02006558        0.64      0.64      0.98      0.01         0.01
  YS02006558YS02006561        0.53      0.77      0.53      1.14         0.53
  YS6184YS6187                0.11      0.11      0.12      0.04         0.05
  YS6360YS6363                0.08      0.11      0.08      0.70         0.08
  YS6354YS6360                0.18      0.18      0.18      0.17         0.16
  YS6351YS6354                0.18      0.20      0.18      0.40         0.18
  YS6350YS6351                0.20      0.23      0.20      0.74         0.20
  YS6348YS6350                0.21      0.21      0.23      0.19         0.19
  YS6344YS6348                0.21      0.21      0.27      0.01         0.01
  YS6363YS6132                0.08      0.08      0.23      0.01         0.01
  YS6137YS6132                0.16      0.16      0.33      0.01         0.01
  YS6189YS6137                0.16      0.16      0.18      1.59         0.01
  YS6187YS6189                0.11      0.11      0.12      0.27         0.01
  YS6179YS6184                0.09      0.09      0.11      0.01         0.01
  YS6176YS6179                0.03      0.03      0.09      0.01         0.01
  YS6171YS6176                0.06      0.06      0.09      0.01         0.01
  YS6168YS6171                0.05      0.05      0.06      0.02         0.03
  YS6164YS6168                0.01      0.01      0.05      0.01         0.01
  YS6162YS6164                0.05      0.05      0.06      0.01         0.01
  YS6132YS6404                0.01      0.12      0.01      0.26         0.01
  YSB1106YSB1105              0.01      0.19      0.01      0.23         0.01
  YSB1109YSB1106              0.19      0.25      0.19      0.39         0.19
  YSB1112YSB1109              0.25      0.25      0.25      0.28         0.25
  YSB1115YSB1112              0.23      0.23      0.25      0.11         0.12
  YSB1118YSB1115              0.26      0.26      0.26      0.28         0.26
  YSB1121YSB1118              0.26      0.29      0.26      0.39         0.26
  YSB1124YSB1121              0.25      0.25      0.29      0.01         0.01
  YSB1105YSB1103              0.01      0.01      0.16      0.16         0.01
  YS02001751YS02001754        0.01      0.01      0.01      0.01         0.01
  YS02001754YS02001757        0.01      0.01      0.08      0.01         0.01
  YS02001882YS02001884        0.58      0.58      0.59      0.01         0.01
  YS02001884YS02001887        0.61      0.61      0.63      0.01         0.01
  YS02001890YS02001895        0.57      0.57      0.67      0.01         0.01
  YS02001895YS02001898        0.56      0.56      0.57      0.01         0.01
  YS02001898YS02001901        0.57      0.57      0.61      0.01         0.01
  YS02001901YS02001904        0.60      0.60      0.61      0.01         0.01
  YS02001904YS02001907        0.60      0.60      0.94      0.01         0.01
  YS02001887YS02001890        0.64      0.64      0.66      0.08         0.01
  YS02004309YS02004307        0.11      0.89      0.11      0.86         0.11
  YS02004319YS02004316        0.24      0.24      0.26      0.01         0.01
  YS02005376YS02005378        1.59      1.59      1.83      0.01         0.01
  YS02005378YS02005381        1.79      1.79      1.83      0.19         0.01
  YS02005381YS02005384        1.26      1.26      1.79      1.81         0.01
  YS02005598YS02005374        0.18      0.18      0.20      0.20         0.18
  YS02005602YS02005603        0.18      0.49      0.18      0.63         0.18
  YS02005603YS02005607        0.18      0.18      0.20      0.20         0.18
  YS02005621YS02005622        0.01      0.01      0.01      0.05         0.01
  YS02005624YS02005625        0.01      0.01      0.24      0.01         0.01
  YS02005630YS02005631        0.01      0.03      0.01      0.08         0.01
  YS02005633YS02005634        0.01      0.01      0.01      0.05         0.01
  YS02005636YS02005637        0.01      0.07      0.01      0.11         0.01
  YS02005639YS02005640        0.01      0.03      0.01      0.07         0.01
  YS02005627YS02005628        0.01      0.04      0.01      0.25         0.01
  YS02005644YS02005645        0.01      0.09      0.01      0.11         0.01
  YS02005650YS02005651        0.01      0.10      0.01      0.18         0.01
  YS02005653YS02005654        0.08      0.08      0.09      0.08         0.08
  YS02005654YS02005655        0.01      0.09      0.01      0.17         0.01
  YS02005658YS02005659        0.01      0.01      0.01      0.07         0.01
  YS02005661YS02005662        0.01      0.09      0.01      0.20         0.01
  YS02005664YS02005665        0.01      0.07      0.01      0.41         0.01
  YS02005667YS02005668        0.01      0.01      0.36      0.03         0.01
  YS02005647YS02005648        0.01      0.25      0.01      0.38         0.01
  YS02004312YS02004309        0.47      0.47      0.89      0.01         0.01
  YS02004314YS02004312        0.28      0.28      0.47      0.01         0.01
  YS02004316YS02004314        0.26      0.26      0.28      0.20         0.20
  YS02004320YS02004319        0.01      0.01      0.18      0.01         0.01
  YS6404YS6401                0.01      0.01      0.01      0.69         0.01
  YSB1132YSB1135              0.56      0.56      0.62      0.01         0.01
  YSB1135YSB1138              0.62      0.62      0.65      0.01         0.01
  YSB1138YSB1141              0.65      0.65      0.75      0.32         0.32
  YSB1141YSB1145              0.73      0.73      0.75      0.31         0.30
  YSB1148YSB1151              0.85      0.85      1.14      0.01         0.01
  YSB1151YSB1154              0.96      0.96      1.36      0.01         0.01
  YSB1154YSB6556              1.00      1.00      1.36      0.32         0.01
  YSB1128YSB1132              0.53      0.53      0.56      0.01         0.01
  YSB1145YSB1148              0.75      0.75      0.85      0.01         0.01
  YSB1198YSB1195              0.28      0.28      0.52      0.01         0.01
  YSB1195YSB1192              0.52      0.52      0.55      0.01         0.01
  YSB1192YSB1189              0.55      0.55      0.58      0.01         0.01
  YSB1186YSB1183              0.64      0.64      0.76      0.01         0.01
  YSB1183YSB1180              0.76      0.76      0.81      0.21         0.22
  YSB1180YSB1177              0.81      0.81      1.20      0.01         0.01
  YSB1177YSB1174              1.20      1.20      1.53      0.22         0.23
  YSB1174YSB1171              1.14      1.14      1.57      0.10         0.11
  YSB1171HS02004479           0.85      0.85      1.32      0.01         0.01
  YS02004307HS02004052        0.01      0.01      0.15      0.01         0.01
  HS02004881HS02006253        0.72      0.72      1.54      0.01         0.01
  WS0200404049WS6136          0.13      0.13      0.22      0.01         0.01
  HS02003125WS02003215        1.49      1.49      1.51      0.01         0.01
  YS02001793JiankangQianchi        0.01      0.01      2.02      0.01         0.01
  YS02001757CaochengTiaoxuchi        0.08      0.08      0.73      0.07         0.05
  WS02004041WS6409            1.13      1.13      1.23      1.24         1.13
  WSF200WS02003060            0.21      0.21      0.49      0.01         0.01
  HS02004053WS02004407        0.14      0.14      1.15      0.01         0.01
  HS02003036HS02003028        0.14      0.14      0.24      0.01         0.01
  
  
  ***************
  Pumping Summary
  ***************
  
  ---------------------------------------------------------------------------------------------------------
                                                  Min       Avg       Max     Total     Power    % Time Off
                        Percent   Number of      Flow      Flow      Flow    Volume     Usage    Pump Curve
  Pump                 Utilized   Start-Ups       LPS       LPS       LPS  10^6 ltr     Kw-hr    Low   High
  ---------------------------------------------------------------------------------------------------------
  CaochengSewagePump1     91.02           1      0.00    200.00    200.00     1.333     10.24    0.0    0.0
  CaochengSewagePump2     60.10           1      0.00    200.00    200.00     0.880      7.06    0.0    0.0
  CaochengRainPump1       56.31           1      0.00    683.00    683.00     2.816      3.92    0.0   43.1
  CaochengRainPump2        0.00           0      0.00      0.00      0.00     0.000      0.00    0.0    0.0
  JiankangSewagePump      73.41           1      0.00    300.00    300.00     1.613     25.39    0.0    0.0
  JiankangRainPump1       36.21           5      0.00   1000.00   1000.00     2.652     17.43    0.0    0.0
  JiankangRainPump2        0.00           0      0.00      0.00      0.00     0.000      0.00    0.0    0.0
  XierchiSewagePump1      91.78           1      0.00     95.00     95.00     0.638      3.94    0.0    0.0
  XierchiSewagePump2      76.22           1      0.00     95.00     95.00     0.530      3.11    0.0    0.0
  XierchiSewagePump3       0.00           0      0.00      0.00      0.00     0.000      0.00    0.0    0.0
  XierchiSewagePump4       0.00           0      0.00      0.00      0.00     0.000      0.00    0.0    0.0
  

  Analysis begun on:  Fri Oct 28 22:46:43 2022
  Analysis ended on:  Fri Oct 28 23:21:23 2022
  Total elapsed time: 00:34:40