
  EPA STORM WATER MANAGEMENT MODEL - VERSION 5.1 (Build 5.3.0.dev0)
  --------------------------------------------------------------

  WARNING 04: minimum elevation drop used for Conduit WS02004404WS02004405
  WARNING 03: negative offset ignored for Link YS02001904YS02001907
  
  *********************************************************
  NOTE: The summary statistics displayed in this report are
  based on results found at every computational time step,  
  not just on results from each reporting time step.
  *********************************************************
  
  ****************
  Analysis Options
  ****************
  Flow Units ............... LPS
  Process Models:
    Rainfall/Runoff ........ YES
    RDII ................... NO
    Snowmelt ............... NO
    Groundwater ............ NO
    Flow Routing ........... YES
    Ponding Allowed ........ NO
    Water Quality .......... NO
  Infiltration Method ...... HORTON
  Flow Routing Method ...... DYNWAVE
  Surcharge Method ......... EXTRAN
  Starting Date ............ 03/31/2017 00:00:00
  Ending Date .............. 03/31/2017 03:00:00
  Antecedent Dry Days ...... 8.0
  Report Time Step ......... 00:00:30
  Wet Time Step ............ 00:01:00
  Dry Time Step ............ 00:01:00
  Routing Time Step ........ 30.00 sec
  Variable Time Step ....... YES
  Maximum Trials ........... 8
  Number of Threads ........ 6
  Head Tolerance ........... 0.001500 m
  
  
  **************************        Volume         Depth
  Runoff Quantity Continuity     hectare-m            mm
  **************************     ---------       -------
  Initial LID Storage ......         0.094         0.800
  Total Precipitation ......        10.619        90.112
  Evaporation Loss .........         0.000         0.000
  Infiltration Loss ........         0.297         2.520
  Surface Runoff ...........         8.538        72.451
  Final Storage ............         1.890        16.039
  Continuity Error (%) .....        -0.107
  
  
  **************************        Volume        Volume
  Flow Routing Continuity        hectare-m      10^6 ltr
  **************************     ---------     ---------
  Dry Weather Inflow .......         0.171         1.709
  Wet Weather Inflow .......         8.516        85.156
  Groundwater Inflow .......         0.000         0.000
  RDII Inflow ..............         0.000         0.000
  External Inflow ..........         0.033         0.330
  External Outflow .........         4.692        46.925
  Flooding Loss ............         3.830        38.300
  Evaporation Loss .........         0.000         0.000
  Exfiltration Loss ........         0.000         0.000
  Initial Stored Volume ....         0.303         3.031
  Final Stored Volume ......         0.531         5.313
  Continuity Error (%) .....        -0.345
  
  
  *************************
  Highest Continuity Errors
  *************************
  Node WS02005193 (58.21%)
  Node YS02001884 (23.88%)
  Node YS02001774 (10.96%)
  Node YS02004320 (6.23%)
  Node HS02003116 (5.98%)
  
  
  ***************************
  Time-Step Critical Elements
  ***************************
  Link YS02005655YS02005657 (42.48%)
  Link WS02006252WS02006251 (22.00%)
  Link WS02004041WS6409 (17.81%)
  Link WS02003073WS02003076 (1.83%)
  Link WS02006280WS02006229 (1.79%)
  
  
  ********************************
  Highest Flow Instability Indexes
  ********************************
  Link WS02006238WS02006235 (78)
  Link WS02003215WS02003116 (71)
  Link WS02003122WS02003187 (70)
  Link WS02003200WS02003201 (70)
  Link WS02003203WS02003091 (69)
  
  
  *************************
  Routing Time Step Summary
  *************************
  Minimum Time Step           :     0.50 sec
  Average Time Step           :     0.96 sec
  Maximum Time Step           :    30.00 sec
  Percent in Steady State     :     0.00
  Average Iterations per Step :     6.59
  Percent Not Converging      :    39.28
  
  
  ***************************
  Subcatchment Runoff Summary
  ***************************
  
  ------------------------------------------------------------------------------------------------------------------------------
                            Total      Total      Total      Total     Imperv       Perv      Total       Total     Peak  Runoff
                           Precip      Runon       Evap      Infil     Runoff     Runoff     Runoff      Runoff   Runoff   Coeff
  Subcatchment                 mm         mm         mm         mm         mm         mm         mm    10^6 ltr      LPS
  ------------------------------------------------------------------------------------------------------------------------------
  sub0                      90.11       0.00       0.00       0.73      81.50       5.26      86.76        0.07    54.75   0.963
  sub1                      90.11       0.00       0.00       0.97      64.53       6.80      71.32        0.47   317.72   0.791
  sub2                      90.11       0.00       0.00       3.43      47.65      21.02      68.67        0.64   340.68   0.762
  sub3                      90.11       0.00       0.00       3.43      47.12      19.68      66.80        1.50   736.12   0.741
  sub4                      90.11       0.00       0.00       0.90      58.21       6.09      64.30        1.34   742.90   0.714
  sub5                      90.11       0.00       0.00       0.65      71.34       4.63      75.96        0.86   572.85   0.843
  sub6                      90.11       0.00       0.00       0.63      68.44       4.44      72.89        1.88  1187.35   0.809
  sub7                      90.11       0.00       0.00       0.78      65.15       5.52      70.66        0.24   174.95   0.784
  sub8                      90.11       0.00       0.00       0.73      61.01       5.17      66.18        0.42   303.73   0.734
  sub9                      90.11       0.00       0.00       0.75      62.57       5.30      67.87        0.33   231.65   0.753
  sub10                     90.11       0.00       0.00       0.71      67.52       5.04      72.56        0.80   544.16   0.805
  sub11                     90.11       0.00       0.00       0.69      65.51       4.89      70.40        0.82   588.17   0.781
  sub12                     90.11       0.00       0.00       1.22      68.07       8.66      76.73        0.67   511.37   0.851
  sub13                     90.11       0.00       0.00       3.57      57.13      23.50      80.63        0.96   585.07   0.895
  sub14                     90.11       0.00       0.00       0.77      63.99       5.42      69.41        0.66   463.93   0.770
  sub15                     90.11       0.00       0.00       2.86      55.01      19.02      74.03        1.27   790.02   0.822
  sub16                     90.11       0.00       0.00       3.20      53.98      21.80      75.79        0.79   536.08   0.841
  sub17                     90.11       0.00       0.00       3.22      56.73      21.84      78.57        0.67   446.62   0.872
  sub18                     90.11       0.00       0.00       0.76      63.88       5.41      69.29        0.55   415.56   0.769
  sub19                     90.11       0.00       0.00       3.17      58.48      21.46      79.94        0.25   166.58   0.887
  sub20                     90.11       0.00       0.00       0.50      42.01       3.56      45.57        0.32   246.53   0.506
  sub21                     90.11       0.00       0.00       1.09      66.55       7.73      74.28        0.38   283.48   0.824
  sub22                     90.11       0.00       0.00       4.41      48.38      28.30      76.67        4.84  2776.77   0.851
  sub23                     90.11       0.00       0.00       3.39      47.89      22.60      70.49        3.36  2110.66   0.782
  sub24                     90.11       0.00       0.00       1.28      65.38       9.04      74.43        2.67  1976.29   0.826
  sub25                     90.11       0.00       0.00       0.73      81.63       5.27      86.90        1.13   888.22   0.964
  sub26                     90.11       0.00       0.00       2.29      60.99      16.28      77.27        1.10   881.17   0.858
  sub27                     90.11       0.00       0.00       0.77      64.65       5.48      70.12        1.01   702.87   0.778
  sub28                     90.11       0.00       0.00       0.68      64.11       4.79      68.90        1.08   747.25   0.765
  sub29                     90.11       0.00       0.00       0.70      65.69       4.91      70.60        1.14   709.16   0.783
  sub30                     90.11       0.00       0.00       0.69      66.60       4.96      71.56        1.61  1245.50   0.794
  sub31                     90.11       0.00       0.00       1.67      67.92      11.79      79.71        1.69  1305.91   0.885
  sub32                     90.11       0.00       0.00       0.71      67.66       5.05      72.71        1.45  1064.55   0.807
  sub33                     90.11       0.00       0.00       1.17      65.34       8.32      73.66        1.35  1040.18   0.817
  sub34                     90.11       0.00       0.00       4.94      41.37      33.55      74.92        1.67  1100.90   0.831
  sub35                     90.11       0.00       0.00       0.71      68.66       5.11      73.77        0.26   226.49   0.819
  sub36                     90.11       0.00       0.00       2.04      60.67      14.47      75.14        0.65   516.74   0.834
  sub37                     90.11       0.00       0.00       3.74      49.07      26.15      75.22        0.57   435.31   0.835
  sub38                     90.11       0.00       0.00       3.39      52.90      23.91      76.80        1.46  1148.31   0.852
  sub39                     90.11       0.00       0.00       0.68      66.09       4.92      71.02        0.76   625.41   0.788
  sub40                     90.11       0.00       0.00       0.67      65.04       4.84      69.89        0.81   679.95   0.776
  sub41                     90.11       0.00       0.00       1.40      61.52       9.96      71.49        1.37  1093.52   0.793
  sub42                     90.11       0.00       0.00       0.75      63.37       5.36      68.74        0.69   568.59   0.763
  sub43                     90.11       0.00       0.00       3.99      54.19      27.09      81.29        0.66   443.31   0.902
  sub44                     90.11       0.00       0.00       0.63      69.11       4.48      73.59        0.83   574.18   0.817
  sub45                     90.11       0.00       0.00       1.58      63.81      11.01      74.83        1.37   957.09   0.830
  sub46                     90.11       0.00       0.00       6.23      30.69      41.32      72.01        0.50   289.26   0.799
  sub47                     90.11       0.00       0.00       0.73      69.86       5.21      75.07        0.57   422.03   0.833
  sub48                     90.11       0.00       0.00       0.75      63.11       5.34      68.45        0.52   386.39   0.760
  sub49                     90.11       0.00       0.00       0.71      67.58       5.04      72.62        0.66   468.08   0.806
  sub50                     90.11       0.00       0.00       0.68      65.09       4.86      69.95        0.49   350.61   0.776
  sub51                     90.11       0.00       0.00       0.66      63.35       4.72      68.07        0.32   243.60   0.755
  sub52                     90.11       0.00       0.00       0.65      71.04       4.60      75.64        0.82   569.22   0.839
  sub53                     90.11       0.00       0.00       0.71      67.45       5.03      72.48        0.73   539.08   0.804
  sub54                     90.11       0.00       0.00       0.62      68.05       4.41      72.46        0.43   288.65   0.804
  sub55                     90.11       0.00       0.00       0.67      63.66       4.75      68.42        0.55   375.98   0.759
  sub56                     90.11       0.00       0.00       1.78      61.67      11.92      73.59        1.04   624.97   0.817
  sub57                     90.11       0.00       0.00       3.23      59.02      21.06      80.08        0.52   306.02   0.889
  sub58                     90.11       0.00       0.00       7.66      23.61      43.80      67.41        2.49  1025.76   0.748
  sub59                     90.11       0.00       0.00       8.08      20.05      40.77      60.82        1.39   501.16   0.675
  sub60                     90.11       0.00       0.00       1.02      62.02       7.20      69.23        0.91   661.51   0.768
  sub61                     90.11       0.00       0.00       1.54      62.27      10.77      73.04        1.34   966.42   0.811
  sub62                     90.11       0.00       0.00       0.68      64.65       4.83      69.48        1.90  1289.72   0.771
  sub67                     90.11       0.00       0.00       0.74      70.08       5.23      75.31        1.40   952.38   0.836
  sub68                     90.11       0.00       0.00       1.24      63.15       8.71      71.86        1.98  1364.11   0.797
  sub71                     90.11       0.00       0.00       0.65      61.06       4.56      65.62        1.72  1100.30   0.728
  sub72                     90.11       0.00       0.00       0.63      67.17       4.37      71.54        0.98   574.41   0.794
  sub73                     90.11       0.00       0.00       2.07      65.16      14.65      79.81        0.08    61.69   0.886
  sub74                     90.11       0.00       0.00       3.02      53.81      21.15      74.96        0.12    91.54   0.832
  sub75                     90.11       0.00       0.00       2.81      54.90      19.75      74.65        0.16   128.69   0.828
  sub76                     90.11       0.00       0.00       1.69      64.29      11.96      76.25        0.19   145.80   0.846
  sub77                     90.11       0.00       0.00       1.56      63.78      11.10      74.88        0.12    94.93   0.831
  sub78                     90.11       0.00       0.00       1.23      68.85       8.76      77.61        0.21   162.06   0.861
  sub79                     90.11       0.00       0.00       2.44      64.28      16.96      81.24        0.21   151.02   0.902
  sub80                     90.11       0.00       0.00       3.20      54.38      22.29      76.67        0.22   166.57   0.851
  sub81                     90.11       0.00       0.00       3.70      52.64      25.40      78.04        0.24   165.93   0.866
  sub82                     90.11       0.00       0.00       3.62      51.59      25.04      76.63        0.23   165.58   0.850
  sub83                     90.11       0.00       0.00       3.68      50.27      25.54      75.81        0.26   187.23   0.841
  sub84                     90.11       0.00       0.00       3.27      50.56      22.38      72.94        0.40   273.97   0.809
  sub85                     90.11       0.00       0.00       2.29      60.35      15.93      76.28        0.34   243.86   0.847
  sub86                     90.11       0.00       0.00       2.50      59.30      17.38      76.68        0.37   267.82   0.851
  sub87                     90.11       0.00       0.00       3.67      56.94      25.32      82.26        0.25   175.57   0.913
  sub88                     90.11       0.00       0.00       3.52      57.10      24.38      81.48        0.25   180.10   0.904
  sub89                     90.11       0.00       0.00       3.06      57.01      21.45      78.46        0.21   160.52   0.871
  sub90                     90.11       0.00       0.00       2.65      59.91      18.59      78.50        0.19   147.85   0.871
  sub91                     90.11       0.00       0.00       2.68      60.75      18.95      79.70        0.14   115.26   0.884
  sub92                     90.11       0.00       0.00       3.25      60.88      23.07      83.95        0.13   103.32   0.932
  sub93                     90.11       0.00       0.00       3.25      60.91      23.10      84.00        0.15   126.05   0.932
  sub94                     90.11       0.00       0.00       3.25      60.76      22.93      83.69        0.18   142.74   0.929
  sub95                     90.11       0.00       0.00       3.04      62.56      21.54      84.10        0.13   101.70   0.933
  sub96                     90.11       0.00       0.00       2.31      68.91      16.52      85.43        0.16   136.77   0.948
  sub97                     90.11       0.00       0.00       6.40      34.55      45.30      79.86        0.19   150.06   0.886
  sub98                     90.11       0.00       0.00       7.55      24.75      51.33      76.07        0.25   148.56   0.844
  sub99                     90.11       0.00       0.00       8.29      18.53      53.36      71.89        0.25   118.70   0.798
  sub100                    90.11       0.00       0.00       8.29      18.49      50.87      69.36        0.24   101.69   0.770
  sub101                    90.11       0.00       0.00       8.29      18.48      50.61      69.09        0.23    96.60   0.767
  sub102                    90.11       0.00       0.00       7.97      21.05      46.83      67.89        0.20    82.98   0.753
  sub103                    90.11       0.00       0.00       8.18      19.30      46.94      66.24        0.31   121.53   0.735
  sub104                    90.11       0.00       0.00       8.18      19.29      46.40      65.69        0.34   131.44   0.729
  sub105                    90.11       0.00       0.00       8.50      16.69      48.11      64.80        0.37   134.86   0.719
  sub106                    90.11       0.00       0.00       8.29      18.46      49.08      67.54        0.35   136.50   0.750
  sub107                    90.11       0.00       0.00       8.50      16.74      52.17      68.91        0.49   200.51   0.765
  sub108                    90.11       0.00       0.00       8.60      15.90      55.71      71.61        0.67   312.83   0.795
  sub109                    90.11       0.00       0.00       6.53      30.84      43.41      74.25        1.06   607.61   0.824
  sub110                    90.11       0.00       0.00       1.67      63.46      11.77      75.24        1.58  1183.17   0.835
  sub111                    90.11       0.00       0.00       2.46      58.40      17.16      75.56        0.65   477.48   0.838
  sub112                    90.11       0.00       0.00       1.93      60.74      13.61      74.35        0.59   444.29   0.825
  sub113                    90.11       0.00       0.00       1.16      59.42       8.23      67.65        0.47   362.30   0.751
  sub114                    90.11       0.00       0.00       1.08      60.11       7.65      67.76        0.45   348.82   0.752
  sub115                    90.11       0.00       0.00       1.03      63.20       7.35      70.55        0.52   399.67   0.783
  sub116                    90.11       0.00       0.00       4.11      51.28      27.69      78.97        0.15    95.56   0.876
  sub117                    90.11       0.00       0.00       4.13      49.64      28.14      77.78        0.36   240.44   0.863
  

  ***********************
  LID Performance Summary
  ***********************

  --------------------------------------------------------------------------------------------------------------------
                                         Total      Evap     Infil   Surface    Drain    Initial     Final  Continuity
                                        Inflow      Loss      Loss   Outflow   Outflow   Storage   Storage       Error
  Subcatchment      LID Control             mm        mm        mm        mm        mm        mm        mm           %
  --------------------------------------------------------------------------------------------------------------------
  sub1              GreenRoof            90.11      0.00      0.00      0.00      0.00      7.05     97.16        0.00
  sub2              GreenRoof            90.11      0.00      0.00      0.00      0.00      7.05     97.16        0.00
  sub3              GreenRoof            90.11      0.00      0.00      0.00      0.00      7.05     97.16        0.00
  sub4              GreenRoof            90.11      0.00      0.00      0.00      0.00      7.05     97.16        0.00
  sub5              GreenRoof            90.11      0.00      0.00      0.00      0.00      7.05     97.16        0.00
  sub6              GreenRoof            90.11      0.00      0.00      0.00      0.00      7.05     97.16        0.00
  sub7              GreenRoof            90.11      0.00      0.00      0.00      0.00      7.05     97.16        0.00
  sub8              GreenRoof            90.11      0.00      0.00      0.00      0.00      7.05     97.16        0.00
  sub9              GreenRoof            90.11      0.00      0.00      0.00      0.00      7.05     97.16        0.00
  sub10             GreenRoof            90.11      0.00      0.00      0.00      0.00      7.05     97.16        0.00
  sub11             GreenRoof            90.11      0.00      0.00      0.00      0.00      7.05     97.16        0.00
  sub12             GreenRoof            90.11      0.00      0.00      0.00      0.00      7.05     97.16        0.00
  sub14             GreenRoof            90.11      0.00      0.00      0.00      0.00      7.05     97.16        0.00
  sub15             GreenRoof            90.11      0.00      0.00      0.00      0.00      7.05     97.16        0.00
  sub16             GreenRoof            90.11      0.00      0.00      0.00      0.00      7.05     97.16        0.00
  sub17             GreenRoof            90.11      0.00      0.00      0.00      0.00      7.05     97.16        0.00
  sub18             GreenRoof            90.11      0.00      0.00      0.00      0.00      7.05     97.16        0.00
  sub19             GreenRoof            90.11      0.00      0.00      0.00      0.00      7.05     97.16        0.00
  sub20             GreenRoof            90.11      0.00      0.00      0.00      0.00      7.05     97.16        0.00
  sub20             GreenRoof            90.11      0.00      0.00      0.00      0.00      7.05     97.16        0.00
  sub21             GreenRoof            90.11      0.00      0.00      0.00      0.00      7.05     97.16        0.00
  sub22             GreenRoof            90.11      0.00      0.00      0.00      0.00      7.05     97.16        0.00
  sub23             GreenRoof            90.11      0.00      0.00      0.00      0.00      7.05     97.16        0.00
  sub24             GreenRoof            90.11      0.00      0.00      0.00      0.00      7.05     97.16        0.00
  sub26             GreenRoof            90.11      0.00      0.00      0.00      0.00      7.05     97.16        0.00
  sub27             GreenRoof            90.11      0.00      0.00      0.00      0.00      7.05     97.16        0.00
  sub28             GreenRoof            90.11      0.00      0.00      0.00      0.00      7.05     97.16        0.00
  sub29             GreenRoof            90.11      0.00      0.00      0.00      0.00      7.05     97.16        0.00
  sub30             GreenRoof            90.11      0.00      0.00      0.00      0.00      7.05     97.16        0.00
  sub31             GreenRoof            90.11      0.00      0.00      0.00      0.00      7.05     97.16        0.00
  sub32             GreenRoof            90.11      0.00      0.00      0.00      0.00      7.05     97.16        0.00
  sub33             GreenRoof            90.11      0.00      0.00      0.00      0.00      7.05     97.16        0.00
  sub34             GreenRoof            90.11      0.00      0.00      0.00      0.00      7.05     97.16        0.00
  sub35             GreenRoof            90.11      0.00      0.00      0.00      0.00      7.05     97.16        0.00
  sub36             GreenRoof            90.11      0.00      0.00      0.00      0.00      7.05     97.16        0.00
  sub37             GreenRoof            90.11      0.00      0.00      0.00      0.00      7.05     97.16        0.00
  sub38             GreenRoof            90.11      0.00      0.00      0.00      0.00      7.05     97.16        0.00
  sub39             GreenRoof            90.11      0.00      0.00      0.00      0.00      7.05     97.16        0.00
  sub40             GreenRoof            90.11      0.00      0.00      0.00      0.00      7.05     97.16        0.00
  sub41             GreenRoof            90.11      0.00      0.00      0.00      0.00      7.05     97.16        0.00
  sub42             GreenRoof            90.11      0.00      0.00      0.00      0.00      7.05     97.16        0.00
  sub44             GreenRoof            90.11      0.00      0.00      0.00      0.00      7.05     97.16        0.00
  sub45             GreenRoof            90.11      0.00      0.00      0.00      0.00      7.05     97.16        0.00
  sub46             GreenRoof            90.11      0.00      0.00      0.00      0.00      7.05     97.16        0.00
  sub47             GreenRoof            90.11      0.00      0.00      0.00      0.00      7.05     97.16        0.00
  sub48             GreenRoof            90.11      0.00      0.00      0.00      0.00      7.05     97.16        0.00
  sub49             GreenRoof            90.11      0.00      0.00      0.00      0.00      7.05     97.16        0.00
  sub50             GreenRoof            90.11      0.00      0.00      0.00      0.00      7.05     97.16        0.00
  sub51             GreenRoof            90.11      0.00      0.00      0.00      0.00      7.05     97.16        0.00
  sub52             GreenRoof            90.11      0.00      0.00      0.00      0.00      7.05     97.16        0.00
  sub53             GreenRoof            90.11      0.00      0.00      0.00      0.00      7.05     97.16        0.00
  sub54             GreenRoof            90.11      0.00      0.00      0.00      0.00      7.05     97.16        0.00
  sub55             GreenRoof            90.11      0.00      0.00      0.00      0.00      7.05     97.16        0.00
  sub56             GreenRoof            90.11      0.00      0.00      0.00      0.00      7.05     97.16        0.00
  sub57             GreenRoof            90.11      0.00      0.00      0.00      0.00      7.05     97.16        0.00
  sub60             GreenRoof            90.11      0.00      0.00      0.00      0.00      7.05     97.16        0.00
  sub61             GreenRoof            90.11      0.00      0.00      0.00      0.00      7.05     97.16        0.00
  sub62             GreenRoof            90.11      0.00      0.00      0.00      0.00      7.05     97.16        0.00
  sub67             GreenRoof            90.11      0.00      0.00      0.00      0.00      7.05     97.16        0.00
  sub68             GreenRoof            90.11      0.00      0.00      0.00      0.00      7.05     97.16        0.00
  sub71             GreenRoof            90.11      0.00      0.00      0.00      0.00      7.05     97.16        0.00
  sub72             GreenRoof            90.11      0.00      0.00      0.00      0.00      7.05     97.16        0.00
  sub73             GreenRoof            90.11      0.00      0.00      0.00      0.00      7.05     97.16        0.00
  sub74             GreenRoof            90.11      0.00      0.00      0.00      0.00      7.05     97.16        0.00
  sub75             GreenRoof            90.11      0.00      0.00      0.00      0.00      7.05     97.16        0.00
  sub76             GreenRoof            90.11      0.00      0.00      0.00      0.00      7.05     97.16        0.00
  sub77             GreenRoof            90.11      0.00      0.00      0.00      0.00      7.05     97.16        0.00
  sub78             GreenRoof            90.11      0.00      0.00      0.00      0.00      7.05     97.16        0.00
  sub79             GreenRoof            90.11      0.00      0.00      0.00      0.00      7.05     97.16        0.00
  sub80             GreenRoof            90.11      0.00      0.00      0.00      0.00      7.05     97.16        0.00
  sub81             GreenRoof            90.11      0.00      0.00      0.00      0.00      7.05     97.16        0.00
  sub82             GreenRoof            90.11      0.00      0.00      0.00      0.00      7.05     97.16        0.00
  sub83             GreenRoof            90.11      0.00      0.00      0.00      0.00      7.05     97.16        0.00
  sub84             GreenRoof            90.11      0.00      0.00      0.00      0.00      7.05     97.16        0.00
  sub85             GreenRoof            90.11      0.00      0.00      0.00      0.00      7.05     97.16        0.00
  sub86             GreenRoof            90.11      0.00      0.00      0.00      0.00      7.05     97.16        0.00
  sub88             GreenRoof            90.11      0.00      0.00      0.00      0.00      7.05     97.16        0.00
  sub89             GreenRoof            90.11      0.00      0.00      0.00      0.00      7.05     97.16        0.00
  sub90             GreenRoof            90.11      0.00      0.00      0.00      0.00      7.05     97.16        0.00
  sub91             GreenRoof            90.11      0.00      0.00      0.00      0.00      7.05     97.16        0.00
  sub109            GreenRoof            90.11      0.00      0.00      0.00      0.00      7.05     97.16        0.00
  sub110            GreenRoof            90.11      0.00      0.00      0.00      0.00      7.05     97.16        0.00
  sub111            GreenRoof            90.11      0.00      0.00      0.00      0.00      7.05     97.16        0.00
  sub112            GreenRoof            90.11      0.00      0.00      0.00      0.00      7.05     97.16        0.00
  sub113            GreenRoof            90.11      0.00      0.00      0.00      0.00      7.05     97.16        0.00
  sub114            GreenRoof            90.11      0.00      0.00      0.00      0.00      7.05     97.16        0.00
  sub115            GreenRoof            90.11      0.00      0.00      0.00      0.00      7.05     97.16        0.00
  sub116            GreenRoof            90.11      0.00      0.00      0.00      0.00      7.05     97.16        0.00
  sub117            GreenRoof            90.11      0.00      0.00      0.00      0.00      7.05     97.16        0.00
  
  ******************
  Node Depth Summary
  ******************
  
  ---------------------------------------------------------------------------------
                                 Average  Maximum  Maximum  Time of Max    Reported
                                   Depth    Depth      HGL   Occurrence   Max Depth
  Node                 Type       Meters   Meters   Meters  days hr:min      Meters
  ---------------------------------------------------------------------------------
  WS02001211           JUNCTION     1.01     2.47     7.31     0  00:44        2.45
  WS02001212           JUNCTION     0.77     2.13     7.19     0  00:44        2.13
  WS02001213           JUNCTION     1.01     2.37     7.13     0  00:44        2.36
  WS02003069           JUNCTION     0.97     1.74     6.33     0  00:43        1.68
  WS02003072           JUNCTION     1.03     1.59     5.96     0  00:47        1.57
  WS02003073           JUNCTION     1.25     1.70     5.77     0  00:47        1.70
  WS02003076           JUNCTION     0.99     1.36     5.58     0  00:47        1.36
  WS02003060           JUNCTION     0.85     1.88     6.81     0  00:43        1.67
  WS02003066           JUNCTION     0.51     1.17     6.73     0  00:47        1.15
  WS02003059           JUNCTION     1.08     2.08     6.77     0  00:44        2.08
  WS02003115           JUNCTION     2.01     2.76     9.62     0  00:33        2.73
  WS02003116           JUNCTION     2.16     3.03     9.74     0  00:24        2.93
  WS02003118           JUNCTION     2.14     2.90     9.52     0  00:24        2.90
  WS02003215           JUNCTION     2.03     2.80     9.66     0  00:33        2.80
  WS02003110           JUNCTION     1.65     2.31     9.56     0  00:47        2.30
  WS02003111           JUNCTION     1.77     2.35     9.44     0  00:33        2.35
  WS02005155           JUNCTION     1.62     2.37     9.68     0  00:46        2.36
  WS02005154           JUNCTION     1.38     2.21     9.85     0  00:46        2.20
  WS02005193           JUNCTION     1.46     3.22    11.04     0  00:42        2.97
  WS02005196           JUNCTION     1.43     3.31    11.16     0  00:28        2.94
  WS02003067           JUNCTION     0.84     1.48     6.80     0  00:47        1.48
  WS02004401           JUNCTION     1.48     2.49     8.49     0  00:45        2.46
  WS02004402           JUNCTION     1.47     2.50     8.46     0  00:45        2.47
  WS02004403           JUNCTION     1.46     2.50     8.43     0  00:46        2.47
  WS02004404           JUNCTION     1.50     2.56     8.41     0  00:46        2.53
  WS02004406           JUNCTION     1.44     2.51     8.34     0  00:46        2.50
  WS02004409           JUNCTION     1.21     2.31     8.08     0  00:47        2.31
  WS02004410           JUNCTION     1.11     2.10     7.82     0  00:47        2.09
  WS02004411           JUNCTION     1.03     1.89     7.57     0  00:47        1.88
  WS02004412           JUNCTION     0.93     1.65     7.29     0  00:47        1.64
  WS02004413           JUNCTION     0.97     1.56     7.03     0  00:47        1.54
  WS02004405           JUNCTION     1.48     2.54     8.39     0  00:46        2.51
  WS02006109           JUNCTION     1.95     2.64     9.26     0  00:40        2.64
  WS02006110           JUNCTION     1.76     2.64     9.22     0  00:30        2.48
  WS02006111           JUNCTION     1.17     2.07     8.78     0  00:30        1.99
  WS02006112           JUNCTION     1.78     2.68     8.56     0  00:00        2.68
  WS02006113           JUNCTION     1.24     2.25     9.15     0  00:30        1.99
  WS02006115           JUNCTION     1.45     2.40     8.54     0  00:45        2.38
  WS02006116           JUNCTION     1.50     2.48     8.52     0  00:45        2.45
  WS02006230           JUNCTION     2.03     2.65     9.39     0  00:37        2.65
  WS02006231           JUNCTION     1.62     2.19     9.31     0  00:56        2.19
  WS02006232           JUNCTION     1.67     2.18     9.22     0  00:37        2.18
  WS02006234           JUNCTION     1.50     1.96     9.12     0  00:35        1.96
  WS02006235           JUNCTION     1.48     1.94     9.10     0  00:32        1.93
  WS02006238           JUNCTION     1.49     1.94     9.09     0  00:32        1.93
  WS02006240           JUNCTION     1.28     1.63     8.93     0  00:32        1.62
  WS02006242           JUNCTION     1.25     1.55     8.82     0  00:26        1.55
  WS02006243           JUNCTION     1.10     1.48     8.90     0  00:27        1.37
  WS02006245           JUNCTION     1.03     1.27     8.76     0  01:38        1.27
  WS02006247           JUNCTION     1.01     1.23     8.73     0  01:09        1.23
  WS02006248           JUNCTION     0.91     1.10     8.69     0  00:27        1.10
  WS02006249           JUNCTION     0.92     1.09     8.69     0  00:27        1.09
  WS02006239           JUNCTION     1.39     1.80     9.01     0  00:32        1.78
  WS02006251           JUNCTION     1.37     2.21     9.88     0  00:42        2.16
  WS02006252           JUNCTION     0.96     1.50     9.74     0  00:42        1.50
  WS02006253           JUNCTION     1.63     3.52    11.16     0  00:42        3.14
  WS02006256           JUNCTION     1.88     2.35     9.28     0  00:17        2.35
  WS02004138           JUNCTION     0.12     0.14     7.39     0  00:43        0.14
  WS02004139           JUNCTION     0.94     2.43     7.34     0  00:44        2.41
  WS02004407           JUNCTION     0.85     2.02     8.34     0  00:45        1.97
  WS02006228           JUNCTION     2.17     3.03     9.68     0  00:45        3.02
  WS02006229           JUNCTION     2.27     3.23     9.92     0  00:45        3.22
  WS02006280           JUNCTION     0.98     1.75    10.02     0  00:45        1.73
  WS02006284           JUNCTION     1.15     1.95    10.35     0  00:46        1.94
  WS02006287           JUNCTION     0.89     1.75    10.70     0  00:45        1.74
  WS02003091           JUNCTION     2.90     4.43    10.23     0  00:00        3.91
  WS02003203           JUNCTION     2.84     3.83     9.82     0  00:00        3.83
  WS6145               JUNCTION     0.43     2.33    10.43     0  00:47        2.31
  WS6147               JUNCTION     0.36     2.25    10.53     0  00:46        2.16
  WS6150               JUNCTION     0.35     2.23    10.56     0  00:46        2.12
  WS6152               JUNCTION     0.36     2.20    10.54     0  00:46        2.14
  WS6155               JUNCTION     0.32     2.10    10.50     0  00:45        2.10
  WS6156               JUNCTION     0.30     2.05    10.52     0  00:46        2.05
  WS6136               JUNCTION     0.38     1.90    10.85     0  00:46        1.90
  WS6140               JUNCTION     0.48     2.46    10.40     0  00:47        2.43
  WS6142               JUNCTION     0.43     2.34    10.41     0  00:47        2.31
  WS6325               JUNCTION     0.70     2.74    10.39     0  00:47        2.73
  WS6327               JUNCTION     0.55     2.58    10.40     0  00:47        2.56
  WS6329               JUNCTION     0.51     2.51    10.39     0  00:47        2.50
  WS6332               JUNCTION     0.44     2.50    10.53     0  00:45        2.34
  WS6158               JUNCTION     0.28     2.05    10.59     0  00:46        1.97
  WS6335               JUNCTION     0.43     2.58    10.66     0  00:45        2.31
  WS6338               JUNCTION     0.37     2.55    10.75     0  00:45        2.18
  WS6340               JUNCTION     0.33     2.50    10.84     0  00:45        2.05
  WS6342               JUNCTION     0.26     2.50    11.10     0  00:45        1.78
  WS6135               JUNCTION     0.85     2.89    10.39     0  00:47        2.88
  WS6396               JUNCTION     0.54     2.02     9.57     0  00:47        2.00
  WS6399               JUNCTION     0.33     1.37     8.80     0  00:47        1.35
  WS02003082           JUNCTION     1.39     1.93     7.01     0  00:46        1.92
  WS02003077           JUNCTION     0.48     0.84     5.85     0  00:46        0.84
  WS02003080           JUNCTION     0.91     1.30     6.24     0  00:47        1.30
  WS02003083           JUNCTION     1.78     2.41     7.44     0  00:46        2.40
  WS02003084           JUNCTION     1.92     2.60     7.70     0  00:53        2.59
  WS02003085           JUNCTION     2.01     2.72     7.89     0  00:46        2.71
  WS02003086           JUNCTION     2.25     3.02     8.22     0  00:46        3.02
  WS02003087           JUNCTION     2.53     3.36     8.57     0  00:46        3.35
  WS02003088           JUNCTION     2.72     4.14     9.43     0  00:00        4.07
  WS02003089           JUNCTION     2.85     4.34     9.80     0  00:00        4.02
  WS02003090           JUNCTION     3.06     4.12     9.55     0  00:00        4.05
  WS02003081           JUNCTION     1.13     1.62     6.66     0  00:46        1.60
  WS02003122           JUNCTION     2.33     3.30     9.67     0  00:24        3.10
  WS02003187           JUNCTION     2.36     3.11     9.44     0  00:23        3.11
  WS02003188           JUNCTION     2.33     2.97     9.23     0  00:23        2.97
  WS02003190           JUNCTION     2.32     2.84     9.04     0  00:24        2.84
  WS02003193           JUNCTION     2.31     2.85     9.09     0  00:23        2.85
  WS02003195           JUNCTION     2.33     2.93     9.18     0  00:30        2.93
  WS02003196           JUNCTION     2.44     3.31     9.49     0  00:23        3.12
  WS02003198           JUNCTION     2.48     3.22     9.40     0  00:46        3.21
  WS02003200           JUNCTION     2.24     2.99     9.42     0  00:30        2.93
  WS02003201           JUNCTION     2.51     3.22     9.36     0  00:30        3.22
  WS02003202           JUNCTION     2.65     4.17    10.23     0  00:00        3.48
  WS02004041           JUNCTION     0.66     0.98     5.34     0  00:47        0.98
  WSA6400              JUNCTION     1.15     2.42     8.26     0  00:46        2.42
  WS6400               JUNCTION     0.50     1.69     8.35     0  00:46        1.69
  WSF208               JUNCTION     0.85     1.95     8.04     0  00:46        1.95
  WSF207               JUNCTION     0.74     1.69     7.83     0  00:46        1.69
  WSF206               JUNCTION     0.82     1.74     7.67     0  00:46        1.73
  WSF205               JUNCTION     0.75     1.62     7.52     0  00:47        1.60
  WSF204               JUNCTION     1.28     2.17     7.33     0  00:47        2.16
  WSF203               JUNCTION     0.66     1.37     7.07     0  00:47        1.35
  WSF202               JUNCTION     0.58     1.20     6.93     0  00:47        1.18
  WSF201               JUNCTION     0.49     1.05     6.78     0  00:47        1.02
  WSF200               JUNCTION     0.65     1.46     6.69     0  00:47        1.44
  HS02004901           JUNCTION     0.74     1.42    11.24     0  00:40        1.42
  HS02004881           JUNCTION     0.57     2.15    11.18     0  00:42        1.87
  HS02004876           JUNCTION     0.69     2.13    11.16     0  00:42        2.12
  HS02004870           JUNCTION     0.59     2.10    11.39     0  00:42        2.02
  HS02004862           JUNCTION     0.60     2.00    11.38     0  00:42        2.00
  HS02004856           JUNCTION     0.63     2.07    11.50     0  00:42        2.07
  HS02004852           JUNCTION     0.57     2.10    11.62     0  00:43        1.97
  HS02004848           JUNCTION     0.55     2.07    11.67     0  00:43        1.91
  HS02004842           JUNCTION     0.86     2.22    11.49     0  00:43        2.22
  HS02004837           JUNCTION     0.58     2.04    11.62     0  00:43        1.91
  HS02004830           JUNCTION     0.65     2.03    11.50     0  00:43        1.98
  HS02004824           JUNCTION     0.70     2.01    11.41     0  00:45        2.01
  HS02004817           JUNCTION     1.18     2.42    11.27     0  00:43        2.41
  HS02004807           JUNCTION     0.86     1.92    11.09     0  00:43        1.92
  HS02004802           JUNCTION     0.87     1.80    10.93     0  00:45        1.80
  HS02004799           JUNCTION     0.97     1.76    10.97     0  00:41        1.76
  HS02004792           JUNCTION     0.78     1.60    11.12     0  00:38        1.60
  HS02004788           JUNCTION     0.58     1.42    11.32     0  00:40        1.42
  HS02004785           JUNCTION     0.63     1.49    11.39     0  00:40        1.40
  HS02004777           JUNCTION     0.75     1.48    11.28     0  00:40        1.47
  HS02004770           JUNCTION     0.73     1.42    11.25     0  00:40        1.42
  HS02004480           JUNCTION     0.87     1.68    10.92     0  00:41        1.64
  HS02004479           JUNCTION     0.91     1.70    10.91     0  00:41        1.67
  HS02004478           JUNCTION     0.76     1.59    10.82     0  00:44        1.58
  HS02004053           JUNCTION     0.30     1.90    10.67     0  00:45        1.09
  HS02004052           JUNCTION     0.37     1.49    11.14     0  00:45        1.38
  HS02004049           JUNCTION     0.22     1.10    11.78     0  00:45        0.86
  HS02004048           JUNCTION     0.50     1.70    12.60     0  00:43        1.70
  HS02004046           JUNCTION     0.47     1.80    13.52     0  00:44        1.80
  HS02004043           JUNCTION     0.27     2.04    14.73     0  00:47        2.03
  HS02004041           JUNCTION     0.15     0.80    16.24     0  00:47        0.62
  HS02004038           JUNCTION     0.14     0.38    19.06     0  00:47        0.38
  HS02004036           JUNCTION     0.00     0.00    22.46     0  00:00        0.00
  HS02004034           JUNCTION     0.00     0.00    26.83     0  00:00        0.00
  HS02004028           JUNCTION     0.20     0.51    37.36     0  00:43        0.51
  HS02004027           JUNCTION     0.16     0.34    36.47     0  00:43        0.34
  HS02004026           JUNCTION     0.16     0.35    35.75     0  00:43        0.34
  HS02004024           JUNCTION     0.17     0.42    34.63     0  00:43        0.42
  HS02004022           JUNCTION     0.24     0.80    33.84     0  00:43        0.80
  HS02004021           JUNCTION     0.28     0.81    32.54     0  00:41        0.81
  HS02004019           JUNCTION     0.35     0.80    31.76     0  00:40        0.80
  HS02004018           JUNCTION     0.23     0.60    33.81     0  00:43        0.60
  HS02004017           JUNCTION     0.22     0.53    34.37     0  00:43        0.53
  HS02004013           JUNCTION     0.14     0.48    35.62     0  00:47        0.48
  HS02004010           JUNCTION     0.05     0.18    38.05     0  00:47        0.18
  HS02003174           JUNCTION     0.18     0.46     6.00     0  00:48        0.46
  HS02003171           JUNCTION     0.20     0.51     6.19     0  00:47        0.51
  HS02003170           JUNCTION     0.24     0.48     6.93     0  00:47        0.48
  HS02003168           JUNCTION     0.12     0.32     6.81     0  00:47        0.32
  HS02003166           JUNCTION     0.23     0.49     6.96     0  00:47        0.49
  HS02003162           JUNCTION     0.23     0.42    30.67     0  00:41        0.42
  HS02003160           JUNCTION     0.17     0.37    28.43     0  00:46        0.37
  HS02003150           JUNCTION     0.18     0.39    26.41     0  00:46        0.39
  HS02003148           JUNCTION     0.20     0.50    22.24     0  00:46        0.50
  HS02003145           JUNCTION     0.26     0.81    14.68     0  00:44        0.81
  HS02003143           JUNCTION     0.38     0.80    13.27     0  00:38        0.80
  HS02003138           JUNCTION     0.23     0.52     7.02     0  01:37        0.52
  HS02003136           JUNCTION     1.46     2.28    10.00     0  00:00        2.28
  HS02003125           JUNCTION     1.55     2.35     9.80     0  00:33        2.29
  HS02003122           JUNCTION     1.59     2.50     9.93     0  00:33        2.36
  HS02003119           JUNCTION     1.36     2.60    10.32     0  00:33        2.16
  HS02003116           JUNCTION     1.04     2.43    10.55     0  00:33        1.76
  HS02003111           JUNCTION     0.46     0.87     9.88     0  00:46        0.86
  HS02003108           JUNCTION     0.37     0.95    10.06     0  00:42        0.81
  HS02003100           JUNCTION     0.26     0.76     9.99     0  00:47        0.74
  HS02003088           JUNCTION     0.21     0.74    10.04     0  00:46        0.73
  HS02003084           JUNCTION     0.09     0.61    10.04     0  00:47        0.60
  HS02003079           JUNCTION     0.06     0.53    10.05     0  00:47        0.53
  HS02003077           JUNCTION     0.01     0.31    10.05     0  00:46        0.31
  HS02003065           JUNCTION     0.68     1.63    10.86     0  00:47        1.62
  HS02003056           JUNCTION     0.71     1.74    10.68     0  00:44        1.71
  HS02003053           JUNCTION     0.49     1.66    10.96     0  00:36        1.57
  HS02003042           JUNCTION     0.34     1.69    11.35     0  00:38        1.34
  HS02003039           JUNCTION     0.38     1.74    11.40     0  00:44        1.42
  HS02003036           JUNCTION     0.20     1.41    11.47     0  00:44        1.19
  HS02003028           JUNCTION     0.32     1.40    11.14     0  00:43        1.40
  HS02003021           JUNCTION     0.34     1.55    10.92     0  00:43        1.49
  HS02003018           JUNCTION     0.35     1.48    10.69     0  00:43        1.48
  HS02003017           JUNCTION     0.36     1.48    10.64     0  00:43        1.48
  HS02003013           JUNCTION     0.35     1.47    10.52     0  00:43        1.42
  HS02003010           JUNCTION     0.37     1.46    10.27     0  00:43        1.30
  HS02003007           JUNCTION     0.33     1.27     9.89     0  00:43        1.09
  HS02003004           JUNCTION     0.41     1.06     9.38     0  00:43        0.98
  HS02003001           JUNCTION     0.12     0.30     8.59     0  00:47        0.30
  YS02001738           JUNCTION     0.00     0.00     8.89     0  00:00        0.00
  YS02001739           JUNCTION     0.00     0.00     8.37     0  00:00        0.00
  YS02001742           JUNCTION     0.00     0.00     8.49     0  00:00        0.00
  YS02001745           JUNCTION     0.14     0.36     7.87     0  00:48        0.35
  YS02001748           JUNCTION     0.17     0.58     7.66     0  00:49        0.58
  YS02001751           JUNCTION     0.17     0.81     7.68     0  00:48        0.80
  YS02001754           JUNCTION     0.20     2.20     8.81     0  00:48        1.02
  YS02001762           JUNCTION     0.40     2.12     8.52     0  00:48        1.50
  YS02001765           JUNCTION     0.38     2.10     8.55     0  00:48        1.52
  YS02001767           JUNCTION     0.40     2.03     8.52     0  00:46        1.56
  YS02001770           JUNCTION     0.46     1.95     8.44     0  00:46        1.77
  YS02001774           JUNCTION     0.53     2.04     8.47     0  00:46        1.87
  YS02001779           JUNCTION     0.28     1.68     8.37     0  00:46        1.65
  YS02001882           JUNCTION     0.75     1.78     8.49     0  00:42        1.74
  YS02001884           JUNCTION     0.85     1.85     8.46     0  00:42        1.81
  YS02001759           JUNCTION     0.40     2.21     8.57     0  00:47        1.47
  YS02001887           JUNCTION     0.93     1.87     8.40     0  00:42        1.85
  YS02001890           JUNCTION     0.95     1.81     8.32     0  00:42        1.81
  YS02001898           JUNCTION     0.72     1.77     8.51     0  00:42        1.56
  YS02001901           JUNCTION     0.82     1.79     8.40     0  00:42        1.68
  YS02001904           JUNCTION     0.80     1.64     8.27     0  00:43        1.64
  YS02001907           JUNCTION     1.12     1.96     8.25     0  00:43        1.96
  YS02001910           JUNCTION     0.94     2.06     8.56     0  00:43        1.93
  YS02001915           JUNCTION     0.78     2.00     8.72     0  00:42        1.89
  YS02001918           JUNCTION     0.51     1.81     8.88     0  00:43        1.65
  YS02001920           JUNCTION     0.60     2.13     9.14     0  00:45        1.88
  YS02001923           JUNCTION     0.42     2.03     9.29     0  00:45        1.81
  YS02001926           JUNCTION     0.43     1.90     9.35     0  00:44        1.77
  YS02001929           JUNCTION     0.29     1.78     9.47     0  00:45        1.74
  YS02001932           JUNCTION     0.19     1.77     9.57     0  00:45        1.62
  YS02001935           JUNCTION     0.14     1.75     9.68     0  00:45        0.98
  YS02001757           JUNCTION     0.39     2.10     8.36     0  00:47        1.34
  YS02001895           JUNCTION     0.72     1.69     8.44     0  00:42        1.57
  YS02005679           JUNCTION     0.00     0.00    10.24     0  00:00        0.00
  YS02005559           JUNCTION     0.10     0.20    10.15     0  00:49        0.20
  YS02005651           JUNCTION     0.07     0.18    10.95     0  00:47        0.18
  YS02005670           JUNCTION     0.07     0.20    10.65     0  00:46        0.19
  YS02005547           JUNCTION     0.06     0.15    10.69     0  00:46        0.15
  YS02005549           JUNCTION     0.08     0.23    11.14     0  00:46        0.23
  YS02005550           JUNCTION     0.10     0.28    10.91     0  00:46        0.28
  YS02005551           JUNCTION     0.06     0.14    10.51     0  00:47        0.14
  YS02005553           JUNCTION     0.12     0.28    10.64     0  00:49        0.28
  YS02005554           JUNCTION     0.07     0.14    10.38     0  00:49        0.14
  YS02005556           JUNCTION     0.13     0.26    10.32     0  00:49        0.26
  YS02005557           JUNCTION     0.07     0.14    10.10     0  00:48        0.14
  YS02005560           JUNCTION     0.08     0.15     9.89     0  00:48        0.15
  YS02005562           JUNCTION     0.12     0.24     9.97     0  00:48        0.24
  YS02005563           JUNCTION     0.07     0.13     9.80     0  00:48        0.13
  YS02005565           JUNCTION     0.11     0.21     9.91     0  00:48        0.21
  YS02005566           JUNCTION     0.09     0.17     9.56     0  00:48        0.17
  YS02005568           JUNCTION     0.13     0.28     9.78     0  00:48        0.28
  YS02005569           JUNCTION     0.10     0.20     9.52     0  00:48        0.20
  YS02005598           JUNCTION     0.22     1.07    10.91     0  00:43        1.07
  YS02005600           JUNCTION     0.18     1.02    10.68     0  00:44        1.02
  YS02005602           JUNCTION     0.42     2.15    10.43     0  00:44        2.15
  YS02005603           JUNCTION     0.14     1.25     9.37     0  00:44        0.58
  YS02005609           JUNCTION     0.08     0.22     9.11     0  00:47        0.22
  YS02005653           JUNCTION     0.12     0.76    11.73     0  00:47        0.76
  YS02005654           JUNCTION     0.13     0.63    11.38     0  00:45        0.58
  YS02005655           JUNCTION     0.06     0.14    10.78     0  00:47        0.14
  YS02005595           JUNCTION     0.33     1.36    11.04     0  00:41        1.36
  YS02005658           JUNCTION     0.11     0.47    11.38     0  00:46        0.39
  YS02005659           JUNCTION     0.06     0.15    10.80     0  00:47        0.15
  YS02005661           JUNCTION     0.13     0.57    11.28     0  00:47        0.56
  YS02005662           JUNCTION     0.05     0.13    10.75     0  00:47        0.13
  YS02005664           JUNCTION     0.14     0.55    11.13     0  00:47        0.54
  YS02005665           JUNCTION     0.05     0.12    10.69     0  00:47        0.12
  YS02005668           JUNCTION     0.05     0.14    10.30     0  00:47        0.14
  YS02005667           JUNCTION     0.29     0.79    10.80     0  00:46        0.78
  YS02005571           JUNCTION     0.16     0.41     9.89     0  00:46        0.38
  YS02005572           JUNCTION     0.11     0.22     9.58     0  00:49        0.22
  YS02005576           JUNCTION     0.12     0.24    10.00     0  00:48        0.24
  YS02005577           JUNCTION     0.11     0.21     9.69     0  00:48        0.21
  YS02005579           JUNCTION     0.30     1.12    10.74     0  00:45        1.12
  YS02005580           JUNCTION     0.18     0.92    10.45     0  00:45        0.70
  YS02005582           JUNCTION     0.33     0.86    10.94     0  00:45        0.86
  YS02005583           JUNCTION     0.17     0.89    10.88     0  00:45        0.41
  YS02005612           JUNCTION     0.45     1.59     9.72     0  00:46        1.59
  YS02005615           JUNCTION     0.06     0.15    11.64     0  00:46        0.15
  YS02005616           JUNCTION     0.05     0.12    10.94     0  00:46        0.12
  YS02005618           JUNCTION     0.08     0.24    11.10     0  00:47        0.24
  YS02005619           JUNCTION     0.05     0.14    10.69     0  00:47        0.14
  YS02005621           JUNCTION     0.09     0.28    11.39     0  00:46        0.28
  YS02005622           JUNCTION     0.04     0.11    11.08     0  00:46        0.11
  YS02005625           JUNCTION     0.04     0.10    11.12     0  00:46        0.10
  YS02005627           JUNCTION     0.11     0.45    11.38     0  00:45        0.35
  YS02005628           JUNCTION     0.04     0.11    11.01     0  00:46        0.11
  YS02005630           JUNCTION     0.10     0.36    11.44     0  00:46        0.34
  YS02005631           JUNCTION     0.05     0.12    11.00     0  00:47        0.12
  YS02005633           JUNCTION     0.09     0.29    11.42     0  00:47        0.29
  YS02005634           JUNCTION     0.05     0.14    10.97     0  00:47        0.14
  YS02005636           JUNCTION     0.11     0.65    11.65     0  00:45        0.49
  YS02005637           JUNCTION     0.06     0.16    10.92     0  00:47        0.16
  YS02005639           JUNCTION     0.10     0.45    11.08     0  00:46        0.39
  YS02005640           JUNCTION     0.06     0.16    10.49     0  00:47        0.16
  YS02005642           JUNCTION     0.08     0.21    11.04     0  00:47        0.21
  YS02005644           JUNCTION     0.14     0.86    11.97     0  00:47        0.85
  YS02005645           JUNCTION     0.08     0.22    11.03     0  00:47        0.22
  YS02005647           JUNCTION     0.23     1.03    11.92     0  00:45        1.03
  YS02005648           JUNCTION     0.09     0.23    11.02     0  00:45        0.23
  YS02005650           JUNCTION     0.14     0.65    11.54     0  00:47        0.65
  YS02005671           JUNCTION     0.04     0.10    10.32     0  00:46        0.10
  YS02005673           JUNCTION     0.08     0.21    10.57     0  00:47        0.21
  YS02005674           JUNCTION     0.05     0.14    10.03     0  00:47        0.14
  YS02005676           JUNCTION     0.00     0.00    10.24     0  00:00        0.00
  YS02005680           JUNCTION     0.05     0.13    10.23     0  00:47        0.13
  YS02005682           JUNCTION     0.00     0.00    10.06     0  00:00        0.00
  YS02005683           JUNCTION     0.03     0.08     9.98     0  00:47        0.08
  YS02005376           JUNCTION     0.79     1.01    11.10     0  00:28        1.01
  YS02005378           JUNCTION     1.32     1.62    11.14     0  00:43        1.61
  YS02005381           JUNCTION     1.20     1.57    11.20     0  00:28        1.57
  YS02005624           JUNCTION     0.23     0.50    11.38     0  00:46        0.49
  YS02005384           JUNCTION     0.38     0.99    10.65     0  00:28        0.53
  YS02005677           JUNCTION     0.06     0.15    10.23     0  00:47        0.15
  YSB1105              JUNCTION     0.28     0.56    10.04     0  00:45        0.56
  YSB1106              JUNCTION     0.27     2.05    11.89     0  00:45        0.76
  YSB1109              JUNCTION     0.33     1.97    11.91     0  00:45        1.07
  YSB1112              JUNCTION     0.34     1.95    12.08     0  00:45        1.31
  YSB1115              JUNCTION     0.31     1.90    12.20     0  00:45        1.29
  YSB1118              JUNCTION     0.33     1.80    12.34     0  00:45        1.44
  YSB1121              JUNCTION     0.39     1.70    12.37     0  00:45        1.70
  YSB1124              JUNCTION     0.25     1.60    12.43     0  00:45        1.54
  YSB1128              JUNCTION     0.44     1.85    12.43     0  00:41        1.85
  YSB1132              JUNCTION     0.49     1.90    12.35     0  00:41        1.86
  YSB1228              JUNCTION     0.06     0.16    11.01     0  00:46        0.16
  YSB1202              JUNCTION     1.00     1.50    12.39     0  00:38        1.46
  YSB1135              JUNCTION     0.61     2.00    12.26     0  00:41        1.92
  YSB1138              JUNCTION     0.70     1.90    12.07     0  00:41        1.90
  YSB1141              JUNCTION     0.75     2.00    11.83     0  00:41        1.89
  YSB1145              JUNCTION     0.76     2.00    11.69     0  00:41        1.86
  YSB1148              JUNCTION     0.83     2.00    11.50     0  00:41        1.89
  YSB1151              JUNCTION     1.02     2.08    11.31     0  00:41        2.00
  YSB1154              JUNCTION     1.16     2.10    11.16     0  00:41        2.10
  YSB1198              JUNCTION     0.22     1.60    12.39     0  00:42        1.18
  YSB1192              JUNCTION     0.43     1.90    12.17     0  00:41        1.70
  YSB6556              JUNCTION     0.99     1.80    10.97     0  00:41        1.80
  YSB1205              JUNCTION     1.18     1.65    12.35     0  00:38        1.65
  YSB1209              JUNCTION     1.15     1.65    12.22     0  00:38        1.65
  YSB1212              JUNCTION     1.05     1.60    12.13     0  00:38        1.60
  YSB1215              JUNCTION     1.06     1.70    12.05     0  00:38        1.69
  YSB1218              JUNCTION     1.06     1.75    11.94     0  00:44        1.75
  YSB1221              JUNCTION     0.99     1.67    11.64     0  00:38        1.58
  YSB1224              JUNCTION     0.87     1.33    11.18     0  00:47        1.33
  YSB1195              JUNCTION     0.38     1.90    12.28     0  00:41        1.59
  YSB1189              JUNCTION     0.53     1.80    11.96     0  00:41        1.80
  YSB1186              JUNCTION     0.58     1.93    11.80     0  00:42        1.74
  YSB1183              JUNCTION     0.72     2.05    11.64     0  00:41        1.88
  YSB1180              JUNCTION     0.74     1.95    11.46     0  00:41        1.83
  YSB1177              JUNCTION     1.00     2.05    11.24     0  00:41        2.04
  YSB1174              JUNCTION     1.05     1.95    11.06     0  00:44        1.95
  YSB1171              JUNCTION     1.21     1.95    10.85     0  00:41        1.95
  YS02006553           JUNCTION     1.12     2.06     8.34     0  00:43        1.98
  YS02006561           JUNCTION     0.39     1.29     7.95     0  00:43        1.27
  YS02006562           JUNCTION     0.89     2.00     8.51     0  00:43        1.81
  YS02006556           JUNCTION     1.09     2.14     8.45     0  00:43        1.99
  YS02006558           JUNCTION     1.13     2.23     8.49     0  00:43        2.07
  YS6132               JUNCTION     0.54     2.94    10.26     0  00:55        2.03
  YS6137               JUNCTION     0.27     2.38    10.17     0  00:50        2.06
  YS6189               JUNCTION     0.37     2.40    10.19     0  00:50        2.28
  YS6184               JUNCTION     0.36     2.42    10.31     0  00:48        1.95
  YS6179               JUNCTION     0.31     2.49    10.47     0  00:48        1.46
  YS6176               JUNCTION     0.22     2.40    10.60     0  00:48        1.13
  YS6171               JUNCTION     0.23     2.10    10.51     0  00:47        1.56
  YS6168               JUNCTION     0.25     2.00    10.51     0  00:48        1.91
  YS6164               JUNCTION     0.08     1.90    10.63     0  00:48        1.89
  YS6162               JUNCTION     0.13     2.10    10.75     0  00:48        2.05
  YS6187               JUNCTION     0.41     2.39    10.17     0  00:50        2.30
  YS6363               JUNCTION     0.32     2.83    10.62     0  00:50        1.83
  YS6360               JUNCTION     0.43     2.56    10.36     0  00:50        1.98
  YS6354               JUNCTION     0.41     2.56    10.71     0  00:50        2.22
  YS6351               JUNCTION     0.50     2.50    10.71     0  00:50        2.49
  YS6350               JUNCTION     0.56     2.50    10.72     0  00:47        2.50
  YS6348               JUNCTION     0.53     2.45    10.85     0  00:45        2.45
  YS6344               JUNCTION     0.34     2.37    10.96     0  00:52        2.27
  YS6375               JUNCTION     0.09     0.33     8.75     0  00:47        0.33
  YS6377               JUNCTION     0.16     0.39     8.75     0  00:47        0.39
  YS6381               JUNCTION     0.17     0.45     8.58     0  00:47        0.45
  YS6386               JUNCTION     0.20     0.54     8.52     0  00:47        0.54
  YS6390               JUNCTION     0.42     0.65     8.34     0  00:47        0.65
  YS6394               JUNCTION     0.11     0.27     8.19     0  00:48        0.27
  YS6404               JUNCTION     0.51     3.00    10.23     0  00:49        1.43
  YS6401               JUNCTION     0.16     0.41     7.62     0  00:49        0.41
  YS02004319           JUNCTION     0.33     1.18    20.80     0  00:40        1.18
  YS02004320           JUNCTION     0.00     0.00    22.64     0  00:58        0.00
  YS02004321           JUNCTION     0.00     0.00    26.80     0  00:49        0.00
  YS02004307           JUNCTION     0.16     0.52    11.05     0  00:47        0.51
  YS02004309           JUNCTION     0.80     1.55    13.07     0  00:29        1.55
  YS02004312           JUNCTION     0.51     1.48    14.91     0  00:39        1.48
  YS02004314           JUNCTION     0.38     1.28    16.99     0  00:40        1.28
  YS02004316           JUNCTION     0.38     1.36    19.13     0  00:40        1.36
  YS02001783           JUNCTION     0.61     1.54     7.69     0  00:43        1.47
  YS02001784           JUNCTION     0.59     1.30     7.37     0  00:43        1.23
  YS02001786           JUNCTION     0.48     1.06     7.09     0  00:43        0.88
  YS02001788           JUNCTION     0.35     0.62     6.60     0  00:46        0.62
  YS02001790           JUNCTION     0.41     0.72     6.36     0  00:46        0.71
  YS02001791           JUNCTION     0.25     0.44     5.91     0  00:54        0.43
  YS02001793           JUNCTION     0.13     0.29     5.12     0  00:46        0.28
  YS02003309           JUNCTION     0.59     1.21     9.77     0  00:29        1.04
  YS02003306           JUNCTION     0.70     1.16     9.60     0  00:29        1.16
  YS02003269           JUNCTION     0.14     0.17     7.76     0  00:42        0.17
  YS02003272           JUNCTION     0.37     1.73     9.46     0  00:30        0.58
  YS02003278           JUNCTION     0.73     1.45     9.37     0  00:30        1.21
  YS02003281           JUNCTION     0.80     1.39     9.47     0  00:30        1.39
  YS02003284           JUNCTION     0.89     1.40     9.41     0  00:30        1.40
  YS02003287           JUNCTION     0.84     1.27     9.34     0  00:30        1.27
  YS02003290           JUNCTION     0.70     1.11     9.40     0  00:52        1.11
  YS02003294           JUNCTION     0.85     1.24     9.42     0  00:30        1.24
  YS02003275           JUNCTION     0.54     1.31     9.22     0  00:30        0.91
  YS02003297           JUNCTION     0.83     1.22     9.43     0  00:30        1.22
  YS02003300           JUNCTION     0.78     1.15     9.42     0  00:29        1.15
  YS02003303           JUNCTION     0.76     1.14     9.46     0  00:29        1.14
  YSB1227              JUNCTION     0.01     0.11    11.01     0  00:46        0.10
  CaochengRainPumpOutfall1 OUTFALL      0.00     0.00     6.00     0  00:00        0.00
  JiankangRainPumpOutfall2 OUTFALL      0.00     0.00     6.00     0  00:00        0.00
  JiankangRainPumpOutfall1 OUTFALL      0.00     0.00     6.00     0  00:00        0.00
  CaochengRainPumpOutfall2 OUTFALL      0.00     0.00     6.00     0  00:00        0.00
  YS02005684           OUTFALL      0.03     0.08     8.49     0  00:47        0.08
  YS02005681           OUTFALL      0.05     0.13     9.35     0  00:47        0.13
  YS02005678           OUTFALL      0.06     0.15     8.68     0  00:47        0.15
  YS02005675           OUTFALL      0.05     0.14     8.67     0  00:47        0.14
  YS02005672           OUTFALL      0.04     0.10     8.43     0  00:47        0.10
  YS02005669           OUTFALL      0.05     0.13     8.85     0  00:47        0.13
  YS02005666           OUTFALL      0.05     0.12     8.80     0  00:47        0.12
  YS02005663           OUTFALL      0.05     0.13     8.86     0  00:47        0.13
  YS02005660           OUTFALL      0.06     0.15     8.96     0  00:47        0.14
  YS02005657           OUTFALL      0.00     0.00     8.74     0  00:00        0.00
  YS02005652           OUTFALL      0.07     0.18     8.80     0  00:47        0.18
  YS02005649           OUTFALL      0.09     0.23     8.93     0  00:45        0.23
  YS02005646           OUTFALL      0.08     0.22     8.21     0  00:47        0.22
  YS02005643           OUTFALL      0.08     0.21     8.77     0  00:47        0.21
  YS02005641           OUTFALL      0.06     0.16     8.85     0  00:47        0.16
  YS02005638           OUTFALL      0.06     0.16     8.82     0  00:47        0.16
  YS02005635           OUTFALL      0.05     0.14     8.80     0  00:47        0.14
  YS02005632           OUTFALL      0.05     0.12     8.68     0  00:47        0.12
  YS02005629           OUTFALL      0.04     0.11     8.58     0  00:46        0.11
  YS02005626           OUTFALL      0.04     0.10     8.62     0  00:46        0.10
  YS02005623           OUTFALL      0.04     0.11     8.59     0  00:46        0.11
  YS02005620           OUTFALL      0.05     0.14     8.93     0  00:47        0.14
  YS02005617           OUTFALL      0.05     0.12     8.96     0  00:46        0.12
  YSB1103              OUTFALL      0.28     0.60     8.60     0  00:45        0.60
  YSB1229              OUTFALL      0.06     0.16     8.96     0  00:46        0.16
  YS02005548           OUTFALL      0.06     0.15     9.15     0  00:46        0.15
  YS02005552           OUTFALL      0.06     0.14     8.77     0  00:47        0.14
  YS02005555           OUTFALL      0.07     0.14     8.87     0  00:49        0.14
  YS02005558           OUTFALL      0.07     0.14     8.84     0  00:48        0.14
  YS02005561           OUTFALL      0.08     0.15     8.83     0  00:49        0.15
  YS02005564           OUTFALL      0.07     0.13     8.61     0  00:48        0.13
  YS02005567           OUTFALL      0.09     0.17     8.71     0  00:48        0.17
  YS02005570           OUTFALL      0.10     0.20     8.91     0  00:48        0.20
  YS02005574           OUTFALL      0.11     0.22     9.06     0  00:49        0.22
  YS02005578           OUTFALL      0.10     0.21     8.99     0  00:48        0.21
  WS02005134           OUTFALL      0.00     0.00     8.74     0  00:00        0.00
  YS02005581           OUTFALL      0.14     0.30     9.10     0  00:45        0.30
  YS02005584           OUTFALL      0.15     0.30     9.26     0  00:44        0.30
  YS02005593           OUTFALL      0.24     0.28     9.00     0  00:47        0.28
  YS02005596           OUTFALL      0.15     0.30     8.84     0  00:41        0.30
  YS02005374           OUTFALL      0.13     0.30     8.54     0  00:43        0.30
  YS02005375           OUTFALL      0.12     0.30     8.69     0  00:43        0.30
  YS02005607           OUTFALL      0.12     0.30     7.53     0  00:44        0.30
  YS02005610           OUTFALL      0.08     0.22     8.83     0  00:47        0.22
  YS02005613           OUTFALL      0.14     0.30     8.58     0  00:45        0.30
  HS02003172           OUTFALL      0.18     0.46     5.91     0  00:48        0.46
  YS6395               OUTFALL      0.11     0.27     6.69     0  00:48        0.27
  YS6405               OUTFALL      0.16     0.40     3.85     0  00:49        0.38
  WSC                  OUTFALL      0.61     0.80     5.00     0  00:37        0.80
  JiankangQianchi      STORAGE      2.97     4.21     5.01     0  01:09        4.21
  CaochengTiaoxuchi    STORAGE      0.94     1.32     6.82     0  01:02        1.32
  XierchiQianchi       STORAGE      7.02     7.47     5.47     0  02:02        7.47
  
  
  *******************
  Node Inflow Summary
  *******************
  
  -------------------------------------------------------------------------------------------------
                                  Maximum  Maximum                  Lateral       Total        Flow
                                  Lateral    Total  Time of Max      Inflow      Inflow     Balance
                                   Inflow   Inflow   Occurrence      Volume      Volume       Error
  Node                 Type           LPS      LPS  days hr:min    10^6 ltr    10^6 ltr     Percent
  -------------------------------------------------------------------------------------------------
  WS02001211           JUNCTION      7.35   220.59     0  01:21      0.0539        1.19       4.139
  WS02001212           JUNCTION      0.00   232.90     0  01:21           0        1.14       2.287
  WS02001213           JUNCTION      0.00   243.34     0  01:21           0        1.13       3.188
  WS02003069           JUNCTION      0.32  2520.77     0  00:47     0.00235        10.5       0.654
  WS02003072           JUNCTION      0.00  2520.63     0  00:47           0        10.4       0.566
  WS02003073           JUNCTION      1.82  3088.11     0  00:47      0.0134        13.8       0.275
  WS02003076           JUNCTION      0.00  3088.00     0  00:47           0        13.7       0.298
  WS02003060           JUNCTION     16.53  2520.35     0  00:47       0.121        10.6       0.528
  WS02003066           JUNCTION      0.00  2332.78     0  00:47           0        9.42       0.105
  WS02003059           JUNCTION      0.00   249.81     0  01:20           0        1.14       5.018
  WS02003115           JUNCTION      0.00   477.09     0  00:59           0        1.07       0.399
  WS02003116           JUNCTION      0.00   307.70     0  00:24           0         1.1       0.741
  WS02003118           JUNCTION      0.14   245.97     0  00:31    4.44e-06        1.09       1.374
  WS02003215           JUNCTION      0.19  2087.77     0  00:47    2.31e-05        2.77       0.964
  WS02003110           JUNCTION      0.18   400.24     0  00:47     0.00132       0.524       1.421
  WS02003111           JUNCTION      1.49   878.55     0  00:47      0.0107        1.51       0.463
  WS02005155           JUNCTION      0.38   399.95     0  00:47     0.00279       0.523       1.890
  WS02005154           JUNCTION    399.67   399.67     0  00:47       0.518        0.52       1.131
  WS02005193           JUNCTION      0.00   189.60     0  00:28           0      0.0152     139.274
  WS02005196           JUNCTION      0.00   149.40     0  00:28           0     0.00565     572.858
  WS02003067           JUNCTION      0.00  1870.13     0  00:46           0        7.43       0.191
  WS02004401           JUNCTION      0.00  1104.54     0  01:30           0        5.77       0.545
  WS02004402           JUNCTION      0.00  1104.50     0  01:31           0        5.75       0.486
  WS02004403           JUNCTION      0.00  1104.43     0  01:31           0        5.73       0.420
  WS02004404           JUNCTION      0.16  1105.19     0  01:31     0.00119        5.72       0.290
  WS02004406           JUNCTION      0.00  1105.08     0  01:31           0        5.69       0.721
  WS02004409           JUNCTION      0.00  1827.41     0  00:45           0        8.17       0.431
  WS02004410           JUNCTION      0.00  1870.07     0  00:46           0        8.22       0.432
  WS02004411           JUNCTION      0.00  1869.98     0  00:46           0        7.54       0.454
  WS02004412           JUNCTION      0.00  1869.75     0  00:46           0        7.51       0.453
  WS02004413           JUNCTION      0.00  1869.87     0  00:46           0        7.47       0.584
  WS02004405           JUNCTION      0.18  1105.41     0  01:30    0.000445        5.71       0.424
  WS02006109           JUNCTION      1.93  1308.01     0  00:00     0.00966        6.58       0.343
  WS02006110           JUNCTION      0.32  1103.95     0  01:30    0.000229        5.91      -0.330
  WS02006111           JUNCTION      0.04  1176.04     0  00:00    7.94e-06         5.9      -0.301
  WS02006112           JUNCTION      0.48  2307.30     0  00:00    2.61e-05        5.92       0.279
  WS02006113           JUNCTION      0.03  1104.10     0  01:30    4.05e-06        5.89      -0.361
  WS02006115           JUNCTION      0.00  1366.62     0  00:00           0        5.82       0.564
  WS02006116           JUNCTION      0.33  1104.42     0  01:30    0.000425        5.79       0.468
  WS02006230           JUNCTION     10.43  1027.87     0  00:45      0.0754        3.36       0.490
  WS02006231           JUNCTION      0.52   453.28     0  01:16      0.0014        1.98       0.825
  WS02006232           JUNCTION      0.21   453.43     0  01:11    0.000101           2       0.901
  WS02006234           JUNCTION      0.13   453.26     0  01:11    3.98e-06        2.01       0.609
  WS02006235           JUNCTION      0.27   415.05     0  00:47    0.000508        2.09       0.525
  WS02006238           JUNCTION      0.00   415.17     0  01:31           0        2.08       0.358
  WS02006240           JUNCTION      0.00   414.88     0  00:47           0        2.11       0.787
  WS02006242           JUNCTION      0.31   414.95     0  00:48    0.000149        2.12       0.932
  WS02006243           JUNCTION      0.65   280.03     0  00:26     0.00142        1.59       1.025
  WS02006245           JUNCTION      0.00   287.20     0  00:26           0         1.6       0.832
  WS02006247           JUNCTION      0.00   299.26     0  00:26           0        1.62       0.741
  WS02006248           JUNCTION      0.00   346.58     0  00:35           0        1.96       0.558
  WS02006249           JUNCTION      0.09  1381.60     0  00:47    2.66e-06        5.61       0.298
  WS02006239           JUNCTION      0.00   415.02     0  00:47           0        2.09       0.609
  WS02006251           JUNCTION      0.08  1718.69     0  00:47    0.000565        5.85       0.310
  WS02006252           JUNCTION      0.00   733.36     0  00:47           0        2.38      -0.008
  WS02006253           JUNCTION     54.75  1718.90     0  00:47      0.0701        4.24       0.485
  WS02006256           JUNCTION      0.00   300.00     0  00:32           0        1.61       0.062
  WS02004138           JUNCTION      0.00   190.00     0  00:29           0        1.17       0.256
  WS02004139           JUNCTION      0.32   190.44     0  00:43     0.00235        1.17       3.434
  WS02004407           JUNCTION      0.08  1829.13     0  00:45    8.71e-05        8.23       0.326
  WS02006228           JUNCTION      1.20  1289.54     0  00:45    0.000877        6.56       0.237
  WS02006229           JUNCTION      0.93  2311.26     0  00:45    0.000759        9.74       0.278
  WS02006280           JUNCTION      0.24  2306.62     0  00:45    0.000342        9.61       0.025
  WS02006284           JUNCTION      0.17  2306.63     0  00:45    0.000727        9.62       0.151
  WS02006287           JUNCTION      0.19  2306.66     0  00:45    6.99e-05        9.63       0.103
  WS02003091           JUNCTION      0.46  1200.35     0  00:00    0.000978         3.5      -1.124
  WS02003203           JUNCTION      0.33  2264.56     0  00:00    0.000144        5.41       0.183
  WS6145               JUNCTION      0.26   235.10     0  00:45    0.000391      0.0903       0.368
  WS6147               JUNCTION      0.00   235.76     0  00:45           0      0.0792       0.230
  WS6150               JUNCTION      0.14   236.38     0  00:45    0.000436      0.0683       0.489
  WS6152               JUNCTION      0.58   240.96     0  00:45     0.00423      0.0574       0.746
  WS6155               JUNCTION      0.01   239.37     0  00:45    4.02e-05      0.0424       0.335
  WS6156               JUNCTION      0.73   236.20     0  00:45     0.00382      0.0313       0.387
  WS6136               JUNCTION      0.22   738.16     0  00:44     5.4e-05        1.49       0.053
  WS6140               JUNCTION      0.19   233.68     0  00:45     0.00013       0.111       0.123
  WS6142               JUNCTION      0.20   234.36     0  00:45    0.000161       0.101       0.222
  WS6325               JUNCTION      0.20   147.43     0  00:44    0.000197       0.089       1.887
  WS6327               JUNCTION      0.16   147.52     0  00:44     0.00049       0.079       0.137
  WS6329               JUNCTION      0.53   147.83     0  00:44     0.00193      0.0682       0.200
  WS6332               JUNCTION      0.36   147.86     0  00:44     0.00079      0.0553       0.167
  WS6158               JUNCTION      1.75   258.29     0  00:46      0.0118      0.0156      -0.292
  WS6335               JUNCTION      0.69   148.09     0  00:44     0.00363      0.0433       0.375
  WS6338               JUNCTION      0.35   148.09     0  00:44     0.00111      0.0283       0.165
  WS6340               JUNCTION      0.23   144.94     0  00:44    0.000203      0.0156       0.065
[...]
  WS02003088WS02003087        1.76      1.77      1.76      1.82         1.76
  WS02003087WS02003086        1.70      1.70      1.77      1.75         0.01
  WS02003086WS02003085        1.69      1.69      1.74      1.79         0.01
  WS02003085WS02003084        1.70      1.70      1.70      1.72         1.69
  WS02003084WS02003083        1.70      1.71      1.70      1.88         1.70
  WS02003083WS02003082        1.68      1.68      1.72      1.79         0.01
  WS02003082WS02003081        1.68      1.68      1.68      1.78         1.68
  WS02003081WS02003080        1.67      1.68      1.67      1.68         1.67
  WS02003080WS02003077        0.61      0.61      1.68      1.68         0.01
  WS02003073WS02003076        0.71      0.71      1.46      0.25         0.01
  HS02004901HS02004770        0.74      0.74      0.74      0.05         0.01
  HS02004876HS02004881        0.73      0.75      0.73      1.61         0.73
  HS02004870HS02004876        0.66      0.66      0.75      0.01         0.01
  HS02004049HS02004052        0.16      0.16      0.19      0.01         0.01
  HS02004048HS02004049        0.27      0.38      0.27      0.44         0.27
  HS02004046HS02004048        0.18      0.18      0.38      0.01         0.01
  HS02004043HS02004046        0.15      0.15      0.21      0.05         0.05
  HS02004041HS02004043        0.01      0.01      0.14      0.01         0.01
  HS02004038HS02004041        0.01      0.01      0.01      0.01         0.01
  HS02004028HS02004027        0.01      0.17      0.01      0.18         0.01
  HS02003143HS02003065        0.57      0.57      0.78      0.01         0.01
  HS02004842HS02004848        0.58      0.58      0.80      0.01         0.01
  HS02004837HS02004842        0.62      0.62      0.80      0.01         0.01
  HS02004830HS02004837        0.62      0.62      0.68      0.01         0.01
  HS02004824HS02004830        0.68      0.68      0.72      0.01         0.01
  HS02004817HS02004824        0.72      0.72      1.56      0.01         0.01
  HS02004770HS02004777        0.74      0.74      0.75      0.01         0.01
  HS02004799HS02004480        0.91      0.91      1.00      1.03         0.01
  HS02004792HS02004799        0.85      0.85      1.00      0.01         0.01
  HS02004788HS02004792        0.68      0.68      0.85      0.01         0.01
  HS02004785HS02004788        0.68      0.70      0.68      1.52         0.57
  HS02004777HS02004785        0.70      0.70      0.75      0.01         0.01
  HS02004480HS02004478        0.83      0.91      0.83      1.70         0.83
  HS02004479HS02004480        0.92      0.92      0.95      0.01         0.01
  HS02003013HS02003010        0.35      0.35      0.40      0.23         0.23
  HS02003010HS02003007        0.34      0.34      0.35      0.38         0.34
  HS02003007HS02003004        0.35      0.35      0.43      0.19         0.19
  HS02003004HS02003001        0.01      0.43      0.01      1.03         0.01
  HS02003065HS02003056        0.77      0.77      0.91      0.01         0.01
  HS02003042HS02003053        0.29      0.29      0.72      0.01         0.01
  HS02003028HS02003021        0.22      0.22      0.30      0.01         0.01
  HS02003021HS02003018        0.32      0.32      0.34      0.10         0.11
  HS02003018HS02003017        0.34      0.34      0.35      0.06         0.06
  HS02003017HS02003013        0.35      0.35      0.35      0.28         0.26
  HS02004862HS02004870        0.64      0.64      0.66      0.25         0.24
  HS02004848HS02004852        0.58      0.58      0.62      0.03         0.01
  HS02004856HS02004862        0.59      0.59      0.64      0.01         0.01
  HS02004852HS02004856        0.62      0.62      0.64      0.02         0.01
  HS02004024HS02004022        0.01      0.01      0.21      0.01         0.01
  HS02004022HS02004021        0.21      0.21      0.31      0.01         0.01
  HS02004021HS02004019        0.31      0.31      0.41      0.24         0.24
  HS02004019HS02003162        0.01      0.41      0.01      0.44         0.01
  HS02004052HS02004053        0.18      0.19      0.18      0.20         0.18
  HS02003122HS02003125        1.51      1.51      1.51      0.15         0.18
  HS02003119HS02003122        1.50      1.50      1.51      0.01         0.01
  HS02003116HS02003119        1.13      1.13      1.49      0.01         0.01
  HS02003111HS02003116        0.01      0.01      1.21      0.01         0.01
  HS02004018HS02004019        0.25      0.25      0.41      0.01         0.01
  HS02003056HS02003136        0.79      0.79      1.53      0.01         0.01
  HS02004017HS02004018        0.23      0.23      0.25      0.01         0.01
  HS02004013HS02004017        0.01      0.01      0.23      0.07         0.01
  HS02004802HS02004478        0.84      0.84      0.92      0.18         0.01
  HS02004478WS02006287        0.70      0.70      0.90      0.01         0.01
  HS02003148HS02003145        0.01      0.01      0.14      0.01         0.01
  HS02003145HS02003143        0.14      0.14      0.55      0.12         0.11
  HS02003136WS02003203        1.54      1.54      1.64      0.01         0.01
  HS02003084HS02003088        0.01      0.01      0.05      0.01         0.01
  HS02003108HS02003111        0.14      0.14      0.37      0.01         0.01
  HS02003100HS02003108        0.08      0.08      0.14      0.01         0.01
  HS02003088HS02003100        0.07      0.07      0.08      0.01         0.01
  HS02004817HS02004807        0.89      0.89      1.56      0.01         0.01
  HS02004807HS02004802        0.89      0.89      0.90      0.32         0.32
  HS02003053HS02003056        0.72      0.72      0.91      0.01         0.01
  HS02003039HS02003042        0.34      0.35      0.39      0.23         0.02
  HS02003036HS02003039        0.18      0.18      0.23      0.01         0.01
  YS02001759YS02001757        0.10      0.11      0.10      0.17         0.10
  YS02001762YS02001759        0.11      0.12      0.11      0.15         0.11
  YS02001765YS02001762        0.11      0.11      0.12      0.07         0.06
  YS02001770YS02001767        0.11      0.13      0.11      0.62         0.11
  YS02001774YS02001770        0.12      0.12      0.15      0.01         0.01
  YS02001779YS02001774        0.09      0.09      0.15      0.01         0.01
  YS02001767YS02001765        0.11      0.11      0.11      0.18         0.11
  YS02006561YS02001783        0.43      0.43      0.62      0.01         0.01
  YS02001783YS02001784        0.59      0.62      0.59      0.77         0.59
  YS02001784YS02001785        0.49      0.59      0.49      1.07         0.49
  YS02001790YS02001791        0.01      0.01      0.01      0.58         0.01
  YS02001910YS02001907        0.65      0.65      0.84      0.01         0.01
  YS02001786YS02001788        0.01      0.49      0.01      0.90         0.01
  YS02001915YS02001910        0.56      0.56      0.65      0.01         0.01
  YS02001918YS02001915        0.48      0.48      0.56      0.01         0.01
  YS02001923YS02001920        0.41      0.41      0.49      0.01         0.01
  YS02001926YS02001923        0.15      0.15      0.18      0.01         0.01
  YS02001929YS02001926        0.03      0.03      0.18      0.01         0.01
  YS02001932YS02001929        0.01      0.01      0.03      0.01         0.01
  YS02001935YS02001932        0.01      0.01      0.01      0.01         0.01
  YS02001920YS02001918        0.48      0.48      0.49      0.01         0.01
  YS02003290YS02003287        1.39      1.39      1.63      0.01         0.01
  YS02003294YS02003290        1.41      1.41      1.67      0.03         0.01
  YS02003297YS02003294        1.65      1.65      1.66      0.24         0.30
  YS02003275YS02003272        1.14      1.27      1.14      1.60         1.14
  YS02003300YS02003297        1.47      1.47      1.63      0.01         0.01
  YS02003303YS02003300        1.37      1.37      1.55      0.01         0.01
  YS02005550YS02005551        0.01      0.01      0.01      0.09         0.01
  YS02005568YS02005569        0.01      0.01      0.01      0.20         0.01
  YS02005582YS02005583        0.34      0.59      0.34      0.82         0.34
  YS02003272YS02003269        0.01      1.21      0.01      1.60         0.01
  YS02003278YS02003275        1.33      1.64      1.33      1.73         1.33
  YS02003281YS02003278        1.55      1.55      1.63      1.32         1.32
  YS02003284YS02003281        1.55      1.55      1.63      0.98         0.30
  YS02003287YS02003284        1.62      1.62      1.65      0.01         0.05
  YS02003306YS02003303        1.32      1.32      1.47      0.42         0.42
  YS02003309YS02003306        1.19      1.19      1.32      0.01         0.01
  YS02005600YS02005375        0.16      0.16      0.18      0.18         0.16
  YS02005384YS02005593        0.01      1.36      0.01      1.43         0.01
  YS02005595YS02005596        0.30      0.32      0.30      0.34         0.30
  YS02005612YS02005613        0.13      0.13      1.07      0.34         0.01
  YS02005553YS02005554        0.01      0.01      0.01      0.21         0.01
  YS02005556YS02005557        0.01      0.01      0.01      0.25         0.01
  YS02005562YS02005563        0.01      0.01      0.01      0.17         0.01
  YS02005571YS02005572        0.01      0.20      0.01      0.38         0.01
  YS02005579YS02005580        0.24      0.45      0.24      0.65         0.24
  YS02005580YS02005581        0.22      0.24      0.22      0.27         0.22
  YS02005583YS02005584        0.34      0.34      0.36      0.36         0.34
  YS02006553YS02006556        0.74      0.74      0.86      0.01         0.01
  YS02006556YS02006558        0.80      0.80      0.89      0.01         0.01
  YSB6556YSB1171              1.03      1.03      1.63      0.01         0.01
  YSB1202YSB1205              1.41      1.41      1.43      0.01         0.01
  YSB1205YSB1209              1.42      1.43      1.42      0.90         0.84
  YSB1209YSB1212              1.40      1.42      1.40      1.52         1.40
  YSB1212YSB1215              1.40      1.40      1.40      0.67         0.65
  YSB1215YSB1218              1.40      1.40      1.40      0.72         0.72
  YSB1218YSB1221              1.40      1.40      1.41      1.32         1.32
  YSB1221YSB1224              1.41      1.41      1.41      1.40         1.40
  YSB1224YSB1105              1.10      1.45      1.10      1.53         1.10
  YSB1189YSB1186              0.62      0.62      0.73      0.19         0.19
  YS02001907YS02006553        1.08      1.08      1.17      0.01         0.01
  YS02006562YS02006558        0.62      0.62      0.89      0.01         0.01
  YS02006558YS02006561        0.52      0.73      0.52      1.02         0.52
  YS6184YS6187                0.12      0.12      0.14      0.04         0.06
  YS6360YS6363                0.08      0.13      0.08      0.66         0.08
  YS6354YS6360                0.20      0.20      0.21      0.19         0.17
  YS6351YS6354                0.20      0.23      0.20      0.41         0.20
  YS6350YS6351                0.23      0.25      0.23      0.72         0.23
  YS6348YS6350                0.23      0.23      0.25      0.22         0.21
  YS6344YS6348                0.23      0.23      0.30      0.01         0.01
  YS6363YS6132                0.08      0.08      0.25      0.01         0.01
  YS6137YS6132                0.17      0.17      0.32      0.01         0.01
  YS6189YS6137                0.17      0.17      0.19      1.35         0.01
  YS6187YS6189                0.11      0.11      0.14      0.27         0.01
  YS6179YS6184                0.10      0.10      0.12      0.01         0.01
  YS6176YS6179                0.04      0.04      0.10      0.01         0.01
  YS6171YS6176                0.06      0.06      0.10      0.01         0.01
  YS6168YS6171                0.05      0.05      0.06      0.02         0.02
  YS6164YS6168                0.01      0.01      0.05      0.01         0.01
  YS6162YS6164                0.05      0.05      0.07      0.01         0.01
  YS6132YS6404                0.01      0.14      0.01      0.27         0.01
  YSB1106YSB1105              0.01      0.17      0.01      0.22         0.01
  YSB1109YSB1106              0.17      0.23      0.17      0.37         0.17
  YSB1112YSB1109              0.23      0.24      0.23      0.27         0.23
  YSB1115YSB1112              0.21      0.21      0.24      0.10         0.10
  YSB1118YSB1115              0.24      0.24      0.24      0.26         0.24
  YSB1121YSB1118              0.24      0.27      0.24      0.36         0.24
  YSB1124YSB1121              0.24      0.24      0.27      0.01         0.01
  YSB1105YSB1103              0.01      0.01      0.15      0.15         0.01
  YS02001751YS02001754        0.01      0.01      0.01      0.01         0.01
  YS02001754YS02001757        0.02      0.02      0.10      0.01         0.01
  YS02001882YS02001884        0.56      0.56      0.58      0.01         0.01
  YS02001884YS02001887        0.60      0.60      0.61      0.01         0.01
  YS02001890YS02001895        0.55      0.55      0.65      0.01         0.01
  YS02001895YS02001898        0.55      0.55      0.55      0.01         0.01
  YS02001898YS02001901        0.56      0.56      0.59      0.01         0.01
  YS02001901YS02001904        0.59      0.59      0.59      0.01         0.01
  YS02001904YS02001907        0.59      0.59      0.87      0.01         0.01
  YS02001887YS02001890        0.62      0.62      0.64      0.17         0.01
  YS02004309YS02004307        0.15      0.99      0.15      0.97         0.15
  YS02004319YS02004316        0.37      0.37      0.38      0.01         0.01
  YS02005376YS02005378        1.66      1.66      1.83      0.01         0.01
  YS02005378YS02005381        1.80      1.80      1.83      0.44         0.01
  YS02005381YS02005384        1.36      1.36      1.80      1.82         0.01
  YS02005598YS02005374        0.21      0.21      0.22      0.22         0.21
  YS02005602YS02005603        0.14      0.41      0.14      0.53         0.14
  YS02005603YS02005607        0.14      0.14      0.16      0.16         0.14
  YS02005621YS02005622        0.01      0.01      0.01      0.06         0.01
  YS02005624YS02005625        0.01      0.01      0.25      0.03         0.01
  YS02005630YS02005631        0.01      0.02      0.01      0.07         0.01
  YS02005633YS02005634        0.01      0.01      0.01      0.05         0.01
  YS02005636YS02005637        0.01      0.07      0.01      0.11         0.01
  YS02005639YS02005640        0.01      0.05      0.01      0.08         0.01
  YS02005627YS02005628        0.01      0.03      0.01      0.24         0.01
  YS02005644YS02005645        0.01      0.13      0.01      0.16         0.01
  YS02005650YS02005651        0.01      0.12      0.01      0.21         0.01
  YS02005653YS02005654        0.10      0.10      0.11      0.10         0.10
  YS02005654YS02005655        0.01      0.11      0.01      0.20         0.01
  YS02005658YS02005659        0.01      0.05      0.01      0.09         0.01
  YS02005661YS02005662        0.01      0.10      0.01      0.21         0.01
  YS02005664YS02005665        0.01      0.12      0.01      0.48         0.01
  YS02005667YS02005668        0.01      0.01      0.52      0.13         0.01
  YS02005647YS02005648        0.01      0.26      0.01      0.40         0.01
  YS02004312YS02004309        0.62      0.62      0.99      0.01         0.01
  YS02004314YS02004312        0.41      0.41      0.62      0.01         0.01
  YS02004316YS02004314        0.38      0.38      0.41      0.32         0.32
  YS02004320YS02004319        0.01      0.01      0.28      0.01         0.01
  YS6404YS6401                0.01      0.01      0.01      0.66         0.01
  YSB1132YSB1135              0.60      0.60      0.66      0.01         0.01
  YSB1135YSB1138              0.66      0.66      0.69      0.01         0.01
  YSB1138YSB1141              0.69      0.69      0.79      0.40         0.40
  YSB1141YSB1145              0.76      0.76      0.79      0.38         0.36
  YSB1148YSB1151              0.88      0.88      1.16      0.01         0.01
  YSB1151YSB1154              0.99      0.99      1.34      0.01         0.01
  YSB1154YSB6556              1.03      1.03      1.34      0.41         0.01
  YSB1128YSB1132              0.58      0.58      0.60      0.01         0.01
  YSB1145YSB1148              0.79      0.79      0.88      0.01         0.01
  YSB1198YSB1195              0.30      0.30      0.56      0.01         0.01
  YSB1195YSB1192              0.55      0.55      0.59      0.01         0.01
  YSB1192YSB1189              0.59      0.59      0.62      0.01         0.01
  YSB1186YSB1183              0.68      0.68      0.80      0.01         0.01
  YSB1183YSB1180              0.80      0.80      0.84      0.23         0.24
  YSB1180YSB1177              0.84      0.84      1.21      0.01         0.01
  YSB1177YSB1174              1.21      1.21      1.49      0.24         0.25
  YSB1174YSB1171              1.16      1.16      1.59      0.17         0.18
  YSB1171HS02004479           0.88      0.88      1.31      0.01         0.01
  YS02004307HS02004052        0.01      0.01      0.19      0.01         0.01
  HS02004881HS02006253        0.73      0.73      1.51      0.01         0.01
  WS0200404049WS6136          0.17      0.17      0.26      0.01         0.01
  HS02003125WS02003215        1.51      1.51      1.53      0.01         0.01
  YS02001793JiankangQianchi        0.01      0.01      2.03      0.01         0.01
  YS02001757CaochengTiaoxuchi        0.09      0.10      0.73      0.08         0.06
  WS02004041WS6409            1.11      1.11      1.20      1.20         1.11
  WSF200WS02003060            0.26      0.26      0.53      0.01         0.01
  HS02004053WS02004407        0.18      0.18      1.15      0.01         0.01
  HS02003036HS02003028        0.18      0.18      0.28      0.01         0.01
  
  
  ***************
  Pumping Summary
  ***************
  
  ---------------------------------------------------------------------------------------------------------
                                                  Min       Avg       Max     Total     Power    % Time Off
                        Percent   Number of      Flow      Flow      Flow    Volume     Usage    Pump Curve
  Pump                 Utilized   Start-Ups       LPS       LPS       LPS  10^6 ltr     Kw-hr    Low   High
  ---------------------------------------------------------------------------------------------------------
  CaochengSewagePump1     89.40           1      0.00    200.00    200.00     1.312     10.05    0.0    0.0
  CaochengSewagePump2     58.82           1      0.00    200.00    200.00     0.863      6.90    0.0    0.0
  CaochengRainPump1       55.31           1      0.00    683.00    683.00     2.771      3.97    0.0   41.3
  CaochengRainPump2        0.00           0      0.00      0.00      0.00     0.000      0.00    0.0    0.0
  JiankangSewagePump      73.14           1      0.00    300.00    300.00     1.609     24.50    0.0    0.0
  JiankangRainPump1       34.87           5      0.00   1000.00   1000.00     2.558     16.80    0.0    0.0
  JiankangRainPump2        0.00           0      0.00      0.00      0.00     0.000      0.00    0.0    0.0
  XierchiSewagePump1      91.80           1      0.00     95.00     95.00     0.640      3.95    0.0    0.0
  XierchiSewagePump2      76.26           1      0.00     95.00     95.00     0.531      3.11    0.0    0.0
  XierchiSewagePump3       0.00           0      0.00      0.00      0.00     0.000      0.00    0.0    0.0
  XierchiSewagePump4       0.00           0      0.00      0.00      0.00     0.000      0.00    0.0    0.0
  

  Analysis begun on:  Sun Oct 23 10:22:02 2022
  Analysis ended on:  Sun Oct 23 10:55:04 2022
  Total elapsed time: 00:33:02