
  EPA STORM WATER MANAGEMENT MODEL - VERSION 5.1 (Build 5.3.0.dev0)
  --------------------------------------------------------------

  WARNING 04: minimum elevation drop used for Conduit WS02004404WS02004405
  WARNING 03: negative offset ignored for Link YS02001904YS02001907
  
  *********************************************************
  NOTE: The summary statistics displayed in this report are
  based on results found at every computational time step,  
  not just on results from each reporting time step.
  *********************************************************
  
  ****************
  Analysis Options
  ****************
  Flow Units ............... LPS
  Process Models:
    Rainfall/Runoff ........ YES
    RDII ................... NO
    Snowmelt ............... NO
    Groundwater ............ NO
    Flow Routing ........... YES
    Ponding Allowed ........ NO
    Water Quality .......... NO
  Infiltration Method ...... HORTON
  Flow Routing Method ...... DYNWAVE
  Surcharge Method ......... EXTRAN
  Starting Date ............ 03/31/2017 00:00:00
  Ending Date .............. 03/31/2017 03:00:00
  Antecedent Dry Days ...... 8.0
  Report Time Step ......... 00:00:30
  Wet Time Step ............ 00:01:00
  Dry Time Step ............ 00:01:00
  Routing Time Step ........ 30.00 sec
  Variable Time Step ....... YES
  Maximum Trials ........... 8
  Number of Threads ........ 6
  Head Tolerance ........... 0.001500 m
  
  
  **************************        Volume         Depth
  Runoff Quantity Continuity     hectare-m            mm
  **************************     ---------       -------
  Initial LID Storage ......         0.144         1.225
  Total Precipitation ......        10.619        90.112
  Evaporation Loss .........         0.000         0.000
  Infiltration Loss ........         0.277         2.355
  Surface Runoff ...........         7.976        67.685
  Final Storage ............         2.520        21.388
  Continuity Error (%) .....        -0.098
  
  
  **************************        Volume        Volume
  Flow Routing Continuity        hectare-m      10^6 ltr
  **************************     ---------     ---------
  Dry Weather Inflow .......         0.171         1.714
  Wet Weather Inflow .......         7.961        79.611
  Groundwater Inflow .......         0.000         0.000
  RDII Inflow ..............         0.000         0.000
  External Inflow ..........         0.033         0.328
  External Outflow .........         4.545        45.453
  Flooding Loss ............         3.413        34.127
  Evaporation Loss .........         0.000         0.000
  Exfiltration Loss ........         0.000         0.000
  Initial Stored Volume ....         0.303         3.031
  Final Stored Volume ......         0.540         5.399
  Continuity Error (%) .....        -0.349
  
  
  *************************
  Highest Continuity Errors
  *************************
  Node WS02005193 (58.02%)
  Node YS02001884 (21.81%)
  Node YS02001774 (10.20%)
  Node HS02003116 (7.14%)
  Node YS02004320 (7.11%)
  
  
  ***************************
  Time-Step Critical Elements
  ***************************
  Link YS02005655YS02005657 (42.55%)
  Link WS02006252WS02006251 (22.04%)
  Link WS02004041WS6409 (20.57%)
  Link WS02003073WS02003076 (1.51%)
  Link WS02006280WS02006229 (1.16%)
  
  
  ********************************
  Highest Flow Instability Indexes
  ********************************
  Link WS02006238WS02006235 (69)
  Link YS02005562YS02005563 (65)
  Link WS02003200WS02003201 (63)
  Link WS02003215WS02003116 (63)
  Link WS02003122WS02003187 (62)
  
  
  *************************
  Routing Time Step Summary
  *************************
  Minimum Time Step           :     0.50 sec
  Average Time Step           :     0.95 sec
  Maximum Time Step           :    30.00 sec
  Percent in Steady State     :     0.00
  Average Iterations per Step :     6.18
  Percent Not Converging      :    36.26
  
  
  ***************************
  Subcatchment Runoff Summary
  ***************************
  
  ------------------------------------------------------------------------------------------------------------------------------
                            Total      Total      Total      Total     Imperv       Perv      Total       Total     Peak  Runoff
                           Precip      Runon       Evap      Infil     Runoff     Runoff     Runoff      Runoff   Runoff   Coeff
  Subcatchment                 mm         mm         mm         mm         mm         mm         mm    10^6 ltr      LPS
  ------------------------------------------------------------------------------------------------------------------------------
  sub0                      90.11       0.00       0.00       0.73      81.50       5.26      86.76        0.07    54.75   0.963
  sub1                      90.11       0.00       0.00       0.94      62.38       6.57      68.95        0.46   308.89   0.765
  sub2                      90.11       0.00       0.00       3.36      46.70      20.65      67.35        0.63   335.62   0.747
  sub3                      90.11       0.00       0.00       3.23      44.50      18.78      63.28        1.42   707.87   0.702
  sub4                      90.11       0.00       0.00       0.95      61.11       6.39      67.50        1.41   768.87   0.749
  sub5                      90.11       0.00       0.00       0.57      62.61       4.06      66.67        0.76   513.24   0.740
  sub6                      90.11       0.00       0.00       0.63      67.99       4.41      72.41        1.87  1181.30   0.804
  sub7                      90.11       0.00       0.00       0.59      50.04       4.24      54.28        0.18   139.37   0.602
  sub8                      90.11       0.00       0.00       0.76      63.57       5.38      68.95        0.44   314.13   0.765
  sub9                      90.11       0.00       0.00       0.70      58.53       4.96      63.49        0.31   219.33   0.705
  sub10                     90.11       0.00       0.00       0.74      70.41       5.26      75.67        0.83   563.88   0.840
  sub11                     90.11       0.00       0.00       0.75      71.25       5.32      76.57        0.89   630.16   0.850
  sub12                     90.11       0.00       0.00       0.97      54.45       6.93      61.38        0.54   419.29   0.681
  sub13                     90.11       0.00       0.00       2.82      45.29      18.89      64.18        0.76   487.67   0.712
  sub14                     90.11       0.00       0.00       0.82      68.47       5.80      74.26        0.71   489.70   0.824
  sub15                     90.11       0.00       0.00       2.69      51.77      17.96      69.73        1.20   753.65   0.774
  sub16                     90.11       0.00       0.00       3.05      51.50      20.84      72.34        0.76   516.83   0.803
  sub17                     90.11       0.00       0.00       2.87      50.67      19.59      70.26        0.60   409.45   0.780
  sub18                     90.11       0.00       0.00       0.80      66.93       5.67      72.60        0.58   432.67   0.806
  sub19                     90.11       0.00       0.00       1.97      36.65      13.66      50.30        0.16   114.91   0.558
  sub20                     90.11       0.00       0.00       0.78      65.04       5.51      70.55        0.49   360.71   0.783
  sub21                     90.11       0.00       0.00       0.95      58.03       6.75      64.77        0.33   251.62   0.719
  sub22                     90.11       0.00       0.00       3.62      39.78      23.66      63.44        4.01  2393.87   0.704
  sub23                     90.11       0.00       0.00       3.17      44.78      21.21      65.99        3.15  2000.59   0.732
  sub24                     90.11       0.00       0.00       1.21      61.98       8.57      70.55        2.53  1888.59   0.783
  sub25                     90.11       0.00       0.00       0.59      65.99       4.26      70.25        0.91   733.35   0.780
  sub26                     90.11       0.00       0.00       2.08      55.20      14.75      69.95        1.00   809.94   0.776
  sub27                     90.11       0.00       0.00       0.78      65.18       5.52      70.70        1.02   707.49   0.785
  sub28                     90.11       0.00       0.00       0.71      66.90       4.99      71.89        1.13   773.75   0.798
  sub29                     90.11       0.00       0.00       0.71      66.35       4.96      71.31        1.15   714.62   0.791
  sub30                     90.11       0.00       0.00       0.56      53.85       4.01      57.86        1.30  1026.59   0.642
  sub31                     90.11       0.00       0.00       1.47      59.93      10.42      70.35        1.49  1167.76   0.781
  sub32                     90.11       0.00       0.00       0.63      60.12       4.48      64.60        1.29   962.39   0.717
  sub33                     90.11       0.00       0.00       0.99      55.45       7.06      62.51        1.14   897.55   0.694
  sub34                     90.11       0.00       0.00       5.24      43.90      35.51      79.41        1.77  1152.32   0.881
  sub35                     90.11       0.00       0.00       0.72      69.59       5.18      74.77        0.26   229.31   0.830
  sub36                     90.11       0.00       0.00       2.31      68.50      16.32      84.82        0.74   576.91   0.941
  sub37                     90.11       0.00       0.00       3.42      44.94      23.99      68.92        0.53   403.09   0.765
  sub38                     90.11       0.00       0.00       2.99      46.77      21.17      67.94        1.29  1036.39   0.754
  sub39                     90.11       0.00       0.00       0.72      69.57       5.18      74.75        0.80   653.94   0.830
  sub40                     90.11       0.00       0.00       0.57      55.00       4.10      59.10        0.69   586.20   0.656
  sub41                     90.11       0.00       0.00       1.24      54.67       8.86      63.53        1.22   979.67   0.705
  sub42                     90.11       0.00       0.00       0.59      50.30       4.26      54.55        0.55   464.30   0.605
  sub43                     90.11       0.00       0.00       3.74      50.90      25.51      76.42        0.62   422.23   0.848
  sub44                     90.11       0.00       0.00       0.54      59.30       3.84      63.14        0.71   507.43   0.701
  sub45                     90.11       0.00       0.00       1.42      57.42       9.92      67.35        1.23   879.48   0.747
  sub46                     90.11       0.00       0.00       5.43      26.76      36.36      63.12        0.44   262.40   0.700
  sub47                     90.11       0.00       0.00       0.62      59.30       4.42      63.72        0.49   366.66   0.707
  sub48                     90.11       0.00       0.00       0.64      53.47       4.53      58.00        0.44   335.07   0.644
  sub49                     90.11       0.00       0.00       0.61      58.11       4.34      62.45        0.57   413.42   0.693
  sub50                     90.11       0.00       0.00       0.54      51.60       3.85      55.45        0.39   288.57   0.615
  sub51                     90.11       0.00       0.00       0.48      46.48       3.46      49.95        0.24   184.63   0.554
  sub52                     90.11       0.00       0.00       0.57      62.14       4.02      66.16        0.72   510.75   0.734
  sub53                     90.11       0.00       0.00       0.63      60.42       4.51      64.92        0.66   490.66   0.720
  sub54                     90.11       0.00       0.00       0.52      56.86       3.68      60.55        0.36   247.82   0.672
  sub55                     90.11       0.00       0.00       0.58      54.84       4.09      58.93        0.47   333.47   0.654
  sub56                     90.11       0.00       0.00       1.64      57.13      11.07      68.19        0.97   590.46   0.757
  sub57                     90.11       0.00       0.00       2.62      48.13      17.41      65.54        0.42   262.40   0.727
  sub58                     90.11       0.00       0.00       7.14      22.03      41.45      63.49        2.35   980.10   0.705
  sub59                     90.11       0.00       0.00       7.20      17.89      37.64      55.53        1.27   465.59   0.616
  sub60                     90.11       0.00       0.00       0.78      47.63       5.54      53.16        0.70   528.55   0.590
  sub61                     90.11       0.00       0.00       1.42      57.57       9.96      67.53        1.24   905.86   0.749
  sub62                     90.11       0.00       0.00       0.61      57.83       4.32      62.15        1.70  1172.16   0.690
  sub67                     90.11       0.00       0.00       0.67      63.58       4.75      68.33        1.27   876.62   0.758
  sub68                     90.11       0.00       0.00       1.07      54.36       7.51      61.87        1.70  1209.80   0.687
  sub71                     90.11       0.00       0.00       0.60      56.36       4.21      60.57        1.58  1032.06   0.672
  sub72                     90.11       0.00       0.00       0.53      57.50       3.74      61.24        0.84   508.22   0.680
  sub73                     90.11       0.00       0.00       2.20      69.37      15.59      84.96        0.08    65.29   0.943
  sub74                     90.11       0.00       0.00       3.36      59.69      23.42      83.11        0.13   100.08   0.922
  sub75                     90.11       0.00       0.00       3.15      61.53      22.10      83.63        0.18   142.41   0.928
  sub76                     90.11       0.00       0.00       1.89      71.87      13.36      85.24        0.21   161.11   0.946
  sub77                     90.11       0.00       0.00       1.78      72.87      12.67      85.54        0.14   107.30   0.949
  sub78                     90.11       0.00       0.00       1.12      62.29       7.93      70.22        0.19   148.43   0.779
  sub79                     90.11       0.00       0.00       2.52      66.30      17.49      83.79        0.22   154.89   0.930
  sub80                     90.11       0.00       0.00       3.46      58.75      24.04      82.79        0.24   177.74   0.919
  sub81                     90.11       0.00       0.00       3.88      55.13      26.56      81.69        0.25   172.14   0.907
  sub82                     90.11       0.00       0.00       3.88      55.23      26.75      81.97        0.25   175.04   0.910
  sub83                     90.11       0.00       0.00       3.99      54.43      27.60      82.03        0.28   200.05   0.910
  sub84                     90.11       0.00       0.00       2.83      43.83      19.49      63.32        0.34   244.31   0.703
  sub85                     90.11       0.00       0.00       2.09      55.19      14.59      69.78        0.31   226.55   0.774
  sub86                     90.11       0.00       0.00       2.73      64.59      18.90      83.49        0.40   287.17   0.927
  sub87                     90.11       0.00       0.00       3.67      56.94      25.32      82.26        0.25   175.57   0.913
  sub88                     90.11       0.00       0.00       3.57      57.85      24.69      82.54        0.25   182.05   0.916
  sub89                     90.11       0.00       0.00       3.25      60.63      22.79      83.42        0.22   169.40   0.926
  sub90                     90.11       0.00       0.00       2.83      64.03      19.85      83.89        0.21   156.66   0.931
  sub91                     90.11       0.00       0.00       2.83      64.27      20.04      84.32        0.15   121.29   0.936
  sub92                     90.11       0.00       0.00       3.25      60.88      23.07      83.95        0.13   103.32   0.932
  sub93                     90.11       0.00       0.00       3.25      60.91      23.10      84.00        0.15   126.05   0.932
  sub94                     90.11       0.00       0.00       3.25      60.76      22.93      83.69        0.18   142.74   0.929
  sub95                     90.11       0.00       0.00       3.04      62.56      21.54      84.10        0.13   101.70   0.933
  sub96                     90.11       0.00       0.00       2.31      68.91      16.52      85.43        0.16   136.77   0.948
  sub97                     90.11       0.00       0.00       6.40      34.55      45.30      79.86        0.19   150.06   0.886
  sub98                     90.11       0.00       0.00       7.55      24.75      51.33      76.07        0.25   148.56   0.844
  sub99                     90.11       0.00       0.00       8.29      18.53      53.36      71.89        0.25   118.70   0.798
  sub100                    90.11       0.00       0.00       8.29      18.49      50.87      69.36        0.24   101.69   0.770
  sub101                    90.11       0.00       0.00       8.29      18.48      50.61      69.09        0.23    96.60   0.767
  sub102                    90.11       0.00       0.00       7.97      21.05      46.83      67.89        0.20    82.98   0.753
  sub103                    90.11       0.00       0.00       8.18      19.30      46.94      66.24        0.31   121.53   0.735
  sub104                    90.11       0.00       0.00       8.18      19.29      46.40      65.69        0.34   131.44   0.729
  sub105                    90.11       0.00       0.00       8.50      16.69      48.11      64.80        0.37   134.86   0.719
  sub106                    90.11       0.00       0.00       8.29      18.46      49.08      67.54        0.35   136.50   0.750
  sub107                    90.11       0.00       0.00       7.00      13.80      44.15      57.96        0.41   179.51   0.643
  sub108                    90.11       0.00       0.00       8.60      15.90      55.71      71.61        0.67   312.83   0.795
  sub109                    90.11       0.00       0.00       6.12      28.92      40.88      69.80        1.00   580.60   0.775
  sub110                    90.11       0.00       0.00       1.66      63.13      11.71      74.84        1.57  1177.80   0.830
  sub111                    90.11       0.00       0.00       2.73      64.67      18.96      83.63        0.72   519.64   0.928
  sub112                    90.11       0.00       0.00       2.20      69.05      15.44      84.49        0.67   495.68   0.938
  sub113                    90.11       0.00       0.00       1.47      75.12      10.39      85.52        0.59   445.04   0.949
  sub114                    90.11       0.00       0.00       1.36      76.02       9.67      85.69        0.57   429.13   0.951
  sub115                    90.11       0.00       0.00       1.04      63.93       7.43      71.36        0.53   403.72   0.792
  sub116                    90.11       0.00       0.00       4.20      52.40      28.26      80.66        0.15    97.12   0.895
  sub117                    90.11       0.00       0.00       4.30      51.65      29.23      80.88        0.37   247.98   0.898
  

  ***********************
  LID Performance Summary
  ***********************

  --------------------------------------------------------------------------------------------------------------------
                                         Total      Evap     Infil   Surface    Drain    Initial     Final  Continuity
                                        Inflow      Loss      Loss   Outflow   Outflow   Storage   Storage       Error
  Subcatchment      LID Control             mm        mm        mm        mm        mm        mm        mm           %
  --------------------------------------------------------------------------------------------------------------------
  sub1              GreenRoof            90.11      0.00      0.00      0.00      0.00      7.05     97.16        0.00
  sub2              GreenRoof            90.11      0.00      0.00      0.00      0.00      7.05     97.16        0.00
  sub3              GreenRoof            90.11      0.00      0.00      0.00      0.00      7.05     97.16        0.00
  sub4              GreenRoof            90.11      0.00      0.00      0.00      0.00      7.05     97.16        0.00
  sub5              GreenRoof            90.11      0.00      0.00      0.00      0.00      7.05     97.16        0.00
  sub6              GreenRoof            90.11      0.00      0.00      0.00      0.00      7.05     97.16        0.00
  sub7              GreenRoof            90.11      0.00      0.00      0.00      0.00      7.05     97.16        0.00
  sub8              GreenRoof            90.11      0.00      0.00      0.00      0.00      7.05     97.16        0.00
  sub9              GreenRoof            90.11      0.00      0.00      0.00      0.00      7.05     97.16        0.00
  sub10             GreenRoof            90.11      0.00      0.00      0.00      0.00      7.05     97.16        0.00
  sub11             GreenRoof            90.11      0.00      0.00      0.00      0.00      7.05     97.16        0.00
  sub12             GreenRoof            90.11      0.00      0.00      0.00      0.00      7.05     97.16        0.00
  sub13             GreenRoof            90.11      0.00      0.00      0.00      0.00      7.05     97.16        0.00
  sub14             GreenRoof            90.11      0.00      0.00      0.00      0.00      7.05     97.16        0.00
  sub15             GreenRoof            90.11      0.00      0.00      0.00      0.00      7.05     97.16        0.00
  sub16             GreenRoof            90.11      0.00      0.00      0.00      0.00      7.05     97.16        0.00
  sub17             GreenRoof            90.11      0.00      0.00      0.00      0.00      7.05     97.16        0.00
  sub18             GreenRoof            90.11      0.00      0.00      0.00      0.00      7.05     97.16        0.00
  sub19             GreenRoof            90.11      0.00      0.00      0.00      0.00      7.05     97.16        0.00
  sub20             GreenRoof            90.11      0.00      0.00      0.00      0.00      7.05     97.16        0.00
  sub21             GreenRoof            90.11      0.00      0.00      0.00      0.00      7.05     97.16        0.00
  sub22             GreenRoof            90.11      0.00      0.00      0.00      0.00      7.05     97.16        0.00
  sub23             GreenRoof            90.11      0.00      0.00      0.00      0.00      7.05     97.16        0.00
  sub24             GreenRoof            90.11      0.00      0.00      0.00      0.00      7.05     97.16        0.00
  sub25             GreenRoof            90.11      0.00      0.00      0.00      0.00      7.05     97.16        0.00
  sub26             GreenRoof            90.11      0.00      0.00      0.00      0.00      7.05     97.16        0.00
  sub27             GreenRoof            90.11      0.00      0.00      0.00      0.00      7.05     97.16        0.00
  sub28             GreenRoof            90.11      0.00      0.00      0.00      0.00      7.05     97.16        0.00
  sub29             GreenRoof            90.11      0.00      0.00      0.00      0.00      7.05     97.16        0.00
  sub30             GreenRoof            90.11      0.00      0.00      0.00      0.00      7.05     97.16        0.00
  sub31             GreenRoof            90.11      0.00      0.00      0.00      0.00      7.05     97.16        0.00
  sub32             GreenRoof            90.11      0.00      0.00      0.00      0.00      7.05     97.16        0.00
  sub33             GreenRoof            90.11      0.00      0.00      0.00      0.00      7.05     97.16        0.00
  sub35             GreenRoof            90.11      0.00      0.00      0.00      0.00      7.05     97.16        0.00
  sub37             GreenRoof            90.11      0.00      0.00      0.00      0.00      7.05     97.16        0.00
  sub38             GreenRoof            90.11      0.00      0.00      0.00      0.00      7.05     97.16        0.00
  sub39             GreenRoof            90.11      0.00      0.00      0.00      0.00      7.05     97.16        0.00
  sub40             GreenRoof            90.11      0.00      0.00      0.00      0.00      7.05     97.16        0.00
  sub41             GreenRoof            90.11      0.00      0.00      0.00      0.00      7.05     97.16        0.00
  sub42             GreenRoof            90.11      0.00      0.00      0.00      0.00      7.05     97.16        0.00
  sub43             GreenRoof            90.11      0.00      0.00      0.00      0.00      7.05     97.16        0.00
  sub44             GreenRoof            90.11      0.00      0.00      0.00      0.00      7.05     97.16        0.00
  sub45             GreenRoof            90.11      0.00      0.00      0.00      0.00      7.05     97.16        0.00
  sub46             GreenRoof            90.11      0.00      0.00      0.00      0.00      7.05     97.16        0.00
  sub47             GreenRoof            90.11      0.00      0.00      0.00      0.00      7.05     97.16        0.00
  sub48             GreenRoof            90.11      0.00      0.00      0.00      0.00      7.05     97.16        0.00
  sub49             GreenRoof            90.11      0.00      0.00      0.00      0.00      7.05     97.16        0.00
  sub50             GreenRoof            90.11      0.00      0.00      0.00      0.00      7.05     97.16        0.00
  sub51             GreenRoof            90.11      0.00      0.00      0.00      0.00      7.05     97.16        0.00
  sub52             GreenRoof            90.11      0.00      0.00      0.00      0.00      7.05     97.16        0.00
  sub53             GreenRoof            90.11      0.00      0.00      0.00      0.00      7.05     97.16        0.00
  sub54             GreenRoof            90.11      0.00      0.00      0.00      0.00      7.05     97.16        0.00
  sub55             GreenRoof            90.11      0.00      0.00      0.00      0.00      7.05     97.16        0.00
  sub56             GreenRoof            90.11      0.00      0.00      0.00      0.00      7.05     97.16        0.00
  sub57             GreenRoof            90.11      0.00      0.00      0.00      0.00      7.05     97.16        0.00
  sub58             GreenRoof            90.11      0.00      0.00      0.00      0.00      7.05     97.16        0.00
  sub59             GreenRoof            90.11      0.00      0.00      0.00      0.00      7.05     97.16        0.00
  sub60             GreenRoof            90.11      0.00      0.00      0.00      0.00      7.05     97.16        0.00
  sub61             GreenRoof            90.11      0.00      0.00      0.00      0.00      7.05     97.16        0.00
  sub62             GreenRoof            90.11      0.00      0.00      0.00      0.00      7.05     97.16        0.00
  sub67             GreenRoof            90.11      0.00      0.00      0.00      0.00      7.05     97.16        0.00
  sub68             GreenRoof            90.11      0.00      0.00      0.00      0.00      7.05     97.16        0.00
  sub71             GreenRoof            90.11      0.00      0.00      0.00      0.00      7.05     97.16        0.00
  sub72             GreenRoof            90.11      0.00      0.00      0.00      0.00      7.05     97.16        0.00
  sub78             GreenRoof            90.11      0.00      0.00      0.00      0.00      7.05     97.16        0.00
  sub84             GreenRoof            90.11      0.00      0.00      0.00      0.00      7.05     97.16        0.00
  sub85             GreenRoof            90.11      0.00      0.00      0.00      0.00      7.05     97.16        0.00
  sub107            GreenRoof            90.11      0.00      0.00      0.00      0.00      7.05     97.16        0.00
  sub109            GreenRoof            90.11      0.00      0.00      0.00      0.00      7.05     97.16        0.00
  sub110            GreenRoof            90.11      0.00      0.00      0.00      0.00      7.05     97.16        0.00
  sub115            GreenRoof            90.11      0.00      0.00      0.00      0.00      7.05     97.16        0.00
  
  ******************
  Node Depth Summary
  ******************
  
  ---------------------------------------------------------------------------------
                                 Average  Maximum  Maximum  Time of Max    Reported
                                   Depth    Depth      HGL   Occurrence   Max Depth
  Node                 Type       Meters   Meters   Meters  days hr:min      Meters
  ---------------------------------------------------------------------------------
  WS02001211           JUNCTION     0.97     3.10     7.93     0  00:44        1.92
  WS02001212           JUNCTION     0.74     2.21     7.28     0  00:45        1.56
  WS02001213           JUNCTION     0.98     2.51     7.27     0  00:44        1.86
  WS02003069           JUNCTION     0.93     1.84     6.43     0  00:44        1.68
  WS02003072           JUNCTION     1.01     1.59     5.96     0  00:48        1.58
  WS02003073           JUNCTION     1.23     1.70     5.77     0  00:48        1.70
  WS02003076           JUNCTION     0.97     1.36     5.58     0  00:48        1.35
  WS02003060           JUNCTION     0.81     1.99     6.92     0  00:44        1.68
  WS02003066           JUNCTION     0.49     1.18     6.73     0  00:48        1.17
  WS02003059           JUNCTION     1.05     2.14     6.83     0  00:45        1.92
  WS02003115           JUNCTION     1.98     2.76     9.62     0  00:34        2.73
  WS02003116           JUNCTION     2.13     3.03     9.74     0  00:25        2.93
  WS02003118           JUNCTION     2.12     2.90     9.52     0  00:25        2.90
  WS02003215           JUNCTION     2.00     2.80     9.66     0  00:34        2.80
  WS02003110           JUNCTION     1.63     2.31     9.57     0  00:45        2.31
  WS02003111           JUNCTION     1.75     2.35     9.44     0  00:33        2.35
  WS02005155           JUNCTION     1.60     2.38     9.69     0  00:45        2.37
  WS02005154           JUNCTION     1.36     2.21     9.85     0  00:46        2.21
  WS02005193           JUNCTION     1.42     3.22    11.04     0  00:43        2.94
  WS02005196           JUNCTION     1.39     3.31    11.16     0  00:29        2.93
  WS02003067           JUNCTION     0.82     1.49     6.81     0  00:47        1.47
  WS02004401           JUNCTION     1.43     2.49     8.49     0  00:47        2.45
  WS02004402           JUNCTION     1.43     2.50     8.46     0  00:47        2.47
  WS02004403           JUNCTION     1.41     2.51     8.44     0  00:47        2.47
  WS02004404           JUNCTION     1.46     2.57     8.42     0  00:47        2.52
  WS02004406           JUNCTION     1.40     2.52     8.35     0  00:47        2.49
  WS02004409           JUNCTION     1.16     2.31     8.08     0  00:47        2.30
  WS02004410           JUNCTION     1.07     2.10     7.82     0  00:47        2.09
  WS02004411           JUNCTION     0.99     1.88     7.56     0  00:47        1.87
  WS02004412           JUNCTION     0.91     1.65     7.29     0  00:48        1.63
  WS02004413           JUNCTION     0.95     1.56     7.03     0  00:47        1.54
  WS02004405           JUNCTION     1.44     2.55     8.40     0  00:47        2.51
  WS02006109           JUNCTION     1.92     2.64     9.26     0  00:41        2.64
  WS02006110           JUNCTION     1.72     2.48     9.07     0  00:49        2.48
  WS02006111           JUNCTION     1.13     2.00     8.70     0  00:54        1.99
  WS02006112           JUNCTION     1.74     2.68     8.56     0  00:00        2.68
  WS02006113           JUNCTION     1.20     2.00     8.89     0  00:54        1.99
  WS02006115           JUNCTION     1.41     2.40     8.54     0  00:46        2.38
  WS02006116           JUNCTION     1.45     2.48     8.52     0  00:46        2.45
  WS02006230           JUNCTION     2.00     2.65     9.39     0  00:37        2.65
  WS02006231           JUNCTION     1.60     2.19     9.31     0  01:28        2.19
  WS02006232           JUNCTION     1.64     2.18     9.22     0  00:37        2.18
  WS02006234           JUNCTION     1.48     1.96     9.12     0  00:36        1.96
  WS02006235           JUNCTION     1.46     1.93     9.10     0  00:52        1.93
  WS02006238           JUNCTION     1.48     1.94     9.08     0  00:33        1.93
  WS02006240           JUNCTION     1.27     1.63     8.92     0  00:33        1.62
  WS02006242           JUNCTION     1.25     1.55     8.82     0  00:26        1.55
  WS02006243           JUNCTION     1.09     1.48     8.90     0  00:28        1.37
  WS02006245           JUNCTION     1.02     1.27     8.75     0  01:28        1.27
  WS02006247           JUNCTION     1.00     1.23     8.73     0  01:11        1.23
  WS02006248           JUNCTION     0.91     1.10     8.69     0  00:28        1.10
  WS02006249           JUNCTION     0.92     1.09     8.69     0  00:28        1.09
  WS02006239           JUNCTION     1.38     1.79     9.00     0  00:33        1.78
  WS02006251           JUNCTION     1.35     2.21     9.88     0  00:43        2.16
  WS02006252           JUNCTION     0.93     1.50     9.74     0  00:43        1.50
  WS02006253           JUNCTION     1.59     3.31    10.96     0  00:43        3.12
  WS02006256           JUNCTION     1.88     2.35     9.28     0  00:17        2.35
  WS02004138           JUNCTION     0.12     0.14     7.39     0  00:44        0.14
  WS02004139           JUNCTION     0.90     3.02     7.93     0  00:44        1.86
  WS02004407           JUNCTION     0.80     2.01     8.32     0  00:46        1.96
  WS02006228           JUNCTION     2.13     3.03     9.68     0  00:45        3.02
  WS02006229           JUNCTION     2.23     3.22     9.92     0  00:44        3.22
  WS02006280           JUNCTION     0.94     1.75    10.02     0  00:45        1.74
  WS02006284           JUNCTION     1.12     1.95    10.35     0  00:48        1.94
  WS02006287           JUNCTION     0.86     1.75    10.70     0  00:44        1.74
  WS02003091           JUNCTION     2.87     4.43    10.23     0  00:00        3.91
  WS02003203           JUNCTION     2.81     3.83     9.82     0  00:00        3.83
  WS6145               JUNCTION     0.36     2.33    10.44     0  00:48        2.31
  WS6147               JUNCTION     0.30     2.24    10.51     0  00:47        2.23
  WS6150               JUNCTION     0.29     2.22    10.55     0  00:47        2.21
  WS6152               JUNCTION     0.30     2.20    10.54     0  00:46        2.20
  WS6155               JUNCTION     0.27     2.10    10.50     0  00:46        2.10
  WS6156               JUNCTION     0.25     2.05    10.52     0  00:46        2.05
  WS6136               JUNCTION     0.32     1.90    10.85     0  00:44        1.90
  WS6140               JUNCTION     0.40     2.47    10.41     0  00:48        2.44
  WS6142               JUNCTION     0.36     2.34    10.42     0  00:48        2.33
  WS6325               JUNCTION     0.61     2.74    10.39     0  00:48        2.72
  WS6327               JUNCTION     0.47     2.58    10.40     0  00:48        2.57
  WS6329               JUNCTION     0.43     2.51    10.40     0  00:48        2.50
  WS6332               JUNCTION     0.37     2.51    10.55     0  00:45        2.35
  WS6158               JUNCTION     0.23     2.05    10.59     0  00:46        2.05
  WS6335               JUNCTION     0.36     2.59    10.66     0  00:45        2.37
  WS6338               JUNCTION     0.31     2.55    10.75     0  00:45        2.44
  WS6340               JUNCTION     0.27     2.50    10.84     0  00:45        2.50
  WS6342               JUNCTION     0.21     2.50    11.10     0  00:45        2.23
  WS6135               JUNCTION     0.77     2.89    10.39     0  00:48        2.87
  WS6396               JUNCTION     0.48     2.02     9.57     0  00:48        2.01
  WS6399               JUNCTION     0.29     1.37     8.80     0  00:48        1.36
  WS02003082           JUNCTION     1.37     1.93     7.00     0  00:47        1.92
  WS02003077           JUNCTION     0.46     0.85     5.85     0  00:47        0.84
  WS02003080           JUNCTION     0.89     1.30     6.24     0  00:47        1.29
  WS02003083           JUNCTION     1.76     2.41     7.44     0  00:47        2.40
  WS02003084           JUNCTION     1.90     2.60     7.70     0  00:48        2.59
  WS02003085           JUNCTION     1.99     2.72     7.89     0  00:52        2.71
  WS02003086           JUNCTION     2.23     3.02     8.22     0  00:48        3.01
  WS02003087           JUNCTION     2.50     3.36     8.57     0  00:47        3.35
  WS02003088           JUNCTION     2.69     4.14     9.43     0  00:00        4.07
  WS02003089           JUNCTION     2.82     4.34     9.80     0  00:00        4.02
  WS02003090           JUNCTION     3.03     4.12     9.55     0  00:00        4.04
  WS02003081           JUNCTION     1.12     1.61     6.65     0  00:47        1.60
  WS02003122           JUNCTION     2.31     3.11     9.48     0  00:52        3.10
  WS02003187           JUNCTION     2.33     3.11     9.44     0  00:24        3.11
  WS02003188           JUNCTION     2.31     2.97     9.23     0  00:43        2.97
  WS02003190           JUNCTION     2.30     2.84     9.04     0  00:31        2.84
  WS02003193           JUNCTION     2.29     2.85     9.09     0  00:24        2.85
  WS02003195           JUNCTION     2.31     2.93     9.18     0  00:24        2.93
  WS02003196           JUNCTION     2.42     3.12     9.30     0  00:45        3.11
  WS02003198           JUNCTION     2.45     3.21     9.39     0  00:45        3.21
  WS02003200           JUNCTION     2.21     2.99     9.43     0  00:31        2.94
  WS02003201           JUNCTION     2.48     3.22     9.36     0  00:31        3.22
  WS02003202           JUNCTION     2.63     4.17    10.23     0  00:00        3.48
  WS02004041           JUNCTION     0.64     0.98     5.34     0  00:48        0.98
  WSA6400              JUNCTION     1.08     2.42     8.26     0  00:47        2.42
  WS6400               JUNCTION     0.44     1.69     8.35     0  00:48        1.67
  WSF208               JUNCTION     0.79     1.95     8.04     0  00:47        1.94
  WSF207               JUNCTION     0.68     1.70     7.83     0  00:47        1.68
  WSF206               JUNCTION     0.77     1.74     7.68     0  00:47        1.73
  WSF205               JUNCTION     0.71     1.61     7.52     0  00:47        1.61
  WSF204               JUNCTION     1.24     2.17     7.32     0  00:48        2.17
  WSF203               JUNCTION     0.62     1.37     7.08     0  00:48        1.36
  WSF202               JUNCTION     0.55     1.20     6.92     0  00:48        1.19
  WSF201               JUNCTION     0.47     1.05     6.78     0  00:48        1.04
  WSF200               JUNCTION     0.61     1.46     6.69     0  00:48        1.46
  HS02004901           JUNCTION     0.71     1.42    11.24     0  00:41        1.42
  HS02004881           JUNCTION     0.54     2.15    11.18     0  00:43        1.85
  HS02004876           JUNCTION     0.67     2.26    11.29     0  00:43        2.10
  HS02004870           JUNCTION     0.57     2.10    11.39     0  00:43        2.02
  HS02004862           JUNCTION     0.58     2.00    11.38     0  00:43        2.00
  HS02004856           JUNCTION     0.61     2.07    11.50     0  00:43        2.07
  HS02004852           JUNCTION     0.55     2.12    11.63     0  00:43        2.00
  HS02004848           JUNCTION     0.53     2.05    11.65     0  00:43        1.93
  HS02004842           JUNCTION     0.85     2.22    11.49     0  00:43        2.22
  HS02004837           JUNCTION     0.56     2.04    11.62     0  00:41        1.91
  HS02004830           JUNCTION     0.63     2.03    11.50     0  00:41        1.99
  HS02004824           JUNCTION     0.67     2.01    11.41     0  00:43        2.01
  HS02004817           JUNCTION     1.16     2.43    11.28     0  00:43        2.41
  HS02004807           JUNCTION     0.84     1.92    11.09     0  00:41        1.92
  HS02004802           JUNCTION     0.85     1.80    10.93     0  00:45        1.80
  HS02004799           JUNCTION     0.93     1.76    10.97     0  00:41        1.76
  HS02004792           JUNCTION     0.73     1.60    11.12     0  00:39        1.60
  HS02004788           JUNCTION     0.55     1.42    11.32     0  00:41        1.42
  HS02004785           JUNCTION     0.60     1.49    11.39     0  00:41        1.40
  HS02004777           JUNCTION     0.72     1.48    11.28     0  00:41        1.48
  HS02004770           JUNCTION     0.70     1.42    11.25     0  00:41        1.42
  HS02004480           JUNCTION     0.83     1.67    10.91     0  00:43        1.64
  HS02004479           JUNCTION     0.87     1.69    10.90     0  00:41        1.67
  HS02004478           JUNCTION     0.73     1.60    10.82     0  00:44        1.58
  HS02004053           JUNCTION     0.27     1.90    10.67     0  00:46        1.09
  HS02004052           JUNCTION     0.33     1.50    11.15     0  00:46        1.38
  HS02004049           JUNCTION     0.19     1.10    11.78     0  00:46        0.86
  HS02004048           JUNCTION     0.45     1.70    12.60     0  00:44        1.70
  HS02004046           JUNCTION     0.43     1.80    13.52     0  00:45        1.65
  HS02004043           JUNCTION     0.23     2.12    14.81     0  00:45        1.65
  HS02004041           JUNCTION     0.13     0.41    15.85     0  00:47        0.41
  HS02004038           JUNCTION     0.13     0.35    19.04     0  00:47        0.35
  HS02004036           JUNCTION     0.00     0.00    22.46     0  00:00        0.00
  HS02004034           JUNCTION     0.00     0.00    26.83     0  00:00        0.00
  HS02004028           JUNCTION     0.19     0.51    37.36     0  00:44        0.51
  HS02004027           JUNCTION     0.15     0.34    36.47     0  00:44        0.33
  HS02004026           JUNCTION     0.15     0.35    35.75     0  00:44        0.34
  HS02004024           JUNCTION     0.16     0.42    34.63     0  00:44        0.42
  HS02004022           JUNCTION     0.22     0.80    33.84     0  00:43        0.80
  HS02004021           JUNCTION     0.27     0.81    32.54     0  00:42        0.81
  HS02004019           JUNCTION     0.35     0.80    31.76     0  00:40        0.80
  HS02004018           JUNCTION     0.24     0.60    33.81     0  00:43        0.60
  HS02004017           JUNCTION     0.23     0.53    34.37     0  00:43        0.53
  HS02004013           JUNCTION     0.16     0.72    35.86     0  00:46        0.72
  HS02004010           JUNCTION     0.06     0.19    38.06     0  00:47        0.19
  HS02003174           JUNCTION     0.18     0.45     5.98     0  00:48        0.45
  HS02003171           JUNCTION     0.19     0.50     6.18     0  00:47        0.50
  HS02003170           JUNCTION     0.24     0.48     6.93     0  00:47        0.47
  HS02003168           JUNCTION     0.12     0.31     6.81     0  00:47        0.31
  HS02003166           JUNCTION     0.23     0.50     6.97     0  00:47        0.49
  HS02003162           JUNCTION     0.23     0.42    30.67     0  00:41        0.42
  HS02003160           JUNCTION     0.17     0.38    28.43     0  00:46        0.37
  HS02003150           JUNCTION     0.18     0.40    26.42     0  00:46        0.40
  HS02003148           JUNCTION     0.20     0.49    22.23     0  00:46        0.49
  HS02003145           JUNCTION     0.25     0.81    14.68     0  00:45        0.81
  HS02003143           JUNCTION     0.37     0.80    13.27     0  00:39        0.80
  HS02003138           JUNCTION     0.20     0.45     6.95     0  01:35        0.45
  HS02003136           JUNCTION     1.43     2.28    10.00     0  00:00        2.28
  HS02003125           JUNCTION     1.52     2.36     9.81     0  00:34        2.27
  HS02003122           JUNCTION     1.56     2.46     9.89     0  00:34        2.35
  HS02003119           JUNCTION     1.33     2.55    10.27     0  00:34        2.13
  HS02003116           JUNCTION     1.01     2.43    10.55     0  00:34        1.73
  HS02003111           JUNCTION     0.45     0.86     9.87     0  00:46        0.84
  HS02003108           JUNCTION     0.35     1.07    10.18     0  00:43        0.79
  HS02003100           JUNCTION     0.24     0.78    10.02     0  00:45        0.70
  HS02003088           JUNCTION     0.19     0.74    10.04     0  00:45        0.67
  HS02003084           JUNCTION     0.08     0.53     9.96     0  00:47        0.52
  HS02003079           JUNCTION     0.05     0.46     9.97     0  00:47        0.46
  HS02003077           JUNCTION     0.01     0.25     9.99     0  00:46        0.25
  HS02003065           JUNCTION     0.66     1.60    10.84     0  00:46        1.60
  HS02003056           JUNCTION     0.68     1.74    10.68     0  00:44        1.69
  HS02003053           JUNCTION     0.46     1.66    10.96     0  00:37        1.53
  HS02003042           JUNCTION     0.31     1.64    11.30     0  00:38        1.30
  HS02003039           JUNCTION     0.35     1.73    11.39     0  00:44        1.39
  HS02003036           JUNCTION     0.17     1.41    11.47     0  00:44        1.16
  HS02003028           JUNCTION     0.28     1.40    11.14     0  00:44        1.40
  HS02003021           JUNCTION     0.30     1.55    10.92     0  00:44        1.49
  HS02003018           JUNCTION     0.32     1.48    10.69     0  00:44        1.48
  HS02003017           JUNCTION     0.32     1.48    10.64     0  00:44        1.48
  HS02003013           JUNCTION     0.32     1.47    10.52     0  00:44        1.42
  HS02003010           JUNCTION     0.34     1.44    10.25     0  00:44        1.29
  HS02003007           JUNCTION     0.30     1.22     9.84     0  00:44        1.09
  HS02003004           JUNCTION     0.39     1.05     9.36     0  00:44        0.98
  HS02003001           JUNCTION     0.11     0.29     8.58     0  00:47        0.29
  YS02001738           JUNCTION     0.00     0.00     8.89     0  00:00        0.00
  YS02001739           JUNCTION     0.00     0.00     8.37     0  00:00        0.00
  YS02001742           JUNCTION     0.00     0.00     8.49     0  00:00        0.00
  YS02001745           JUNCTION     0.12     0.31     7.82     0  00:47        0.31
  YS02001748           JUNCTION     0.14     0.35     7.43     0  00:47        0.35
  YS02001751           JUNCTION     0.14     0.41     7.28     0  00:49        0.41
  YS02001754           JUNCTION     0.15     0.70     7.31     0  00:48        0.70
  YS02001762           JUNCTION     0.35     1.62     8.02     0  00:47        1.22
  YS02001765           JUNCTION     0.33     1.63     8.08     0  00:47        1.23
  YS02001767           JUNCTION     0.35     1.63     8.12     0  00:47        1.25
  YS02001770           JUNCTION     0.41     1.86     8.36     0  00:47        1.34
  YS02001774           JUNCTION     0.48     1.97     8.39     0  00:47        1.42
  YS02001779           JUNCTION     0.23     1.68     8.37     0  00:47        1.16
  YS02001882           JUNCTION     0.72     1.83     8.55     0  00:43        1.65
  YS02001884           JUNCTION     0.81     1.93     8.55     0  00:43        1.75
  YS02001759           JUNCTION     0.35     1.61     7.98     0  00:47        1.19
  YS02001887           JUNCTION     0.89     1.92     8.46     0  00:43        1.83
  YS02001890           JUNCTION     0.92     1.81     8.32     0  00:43        1.81
  YS02001898           JUNCTION     0.68     1.75     8.49     0  00:43        1.56
  YS02001901           JUNCTION     0.79     1.84     8.45     0  00:43        1.67
  YS02001904           JUNCTION     0.77     1.69     8.32     0  00:43        1.63
  YS02001907           JUNCTION     1.08     1.96     8.25     0  00:43        1.96
  YS02001910           JUNCTION     0.90     2.01     8.52     0  00:46        2.01
  YS02001915           JUNCTION     0.73     2.00     8.72     0  00:43        1.99
  YS02001918           JUNCTION     0.47     1.81     8.88     0  00:43        1.81
  YS02001920           JUNCTION     0.56     2.14     9.15     0  00:45        2.11
  YS02001923           JUNCTION     0.38     2.03     9.29     0  00:45        2.02
  YS02001926           JUNCTION     0.40     1.90     9.35     0  00:44        1.90
  YS02001929           JUNCTION     0.26     1.78     9.47     0  00:45        1.78
  YS02001932           JUNCTION     0.17     1.77     9.57     0  00:45        1.77
  YS02001935           JUNCTION     0.12     1.75     9.68     0  00:45        1.75
  YS02001757           JUNCTION     0.33     1.18     7.44     0  00:48        1.08
  YS02001895           JUNCTION     0.68     1.70     8.44     0  00:43        1.56
  YS02005679           JUNCTION     0.00     0.00    10.24     0  00:00        0.00
  YS02005559           JUNCTION     0.10     0.20    10.15     0  00:49        0.20
  YS02005651           JUNCTION     0.07     0.19    10.96     0  00:47        0.19
  YS02005670           JUNCTION     0.08     0.21    10.67     0  00:47        0.21
  YS02005547           JUNCTION     0.06     0.15    10.69     0  00:46        0.15
  YS02005549           JUNCTION     0.08     0.23    11.14     0  00:46        0.23
  YS02005550           JUNCTION     0.10     0.28    10.91     0  00:47        0.28
  YS02005551           JUNCTION     0.06     0.14    10.51     0  00:47        0.14
  YS02005553           JUNCTION     0.12     0.28    10.64     0  00:48        0.28
  YS02005554           JUNCTION     0.07     0.14    10.38     0  00:48        0.14
  YS02005556           JUNCTION     0.13     0.26    10.32     0  00:48        0.26
  YS02005557           JUNCTION     0.07     0.14    10.10     0  00:48        0.14
  YS02005560           JUNCTION     0.08     0.15     9.89     0  00:48        0.15
  YS02005562           JUNCTION     0.12     0.24     9.97     0  00:48        0.23
  YS02005563           JUNCTION     0.07     0.13     9.80     0  00:48        0.13
  YS02005565           JUNCTION     0.11     0.21     9.91     0  00:48        0.21
  YS02005566           JUNCTION     0.09     0.17     9.56     0  00:48        0.17
  YS02005568           JUNCTION     0.14     0.28     9.78     0  00:48        0.28
  YS02005569           JUNCTION     0.10     0.20     9.52     0  00:48        0.20
  YS02005598           JUNCTION     0.25     1.07    10.91     0  00:43        1.07
  YS02005600           JUNCTION     0.23     1.02    10.68     0  00:43        1.02
  YS02005602           JUNCTION     0.51     2.15    10.43     0  00:43        2.15
  YS02005603           JUNCTION     0.16     1.21     9.33     0  00:43        0.58
  YS02005609           JUNCTION     0.09     0.22     9.12     0  00:47        0.22
  YS02005653           JUNCTION     0.14     0.87    11.84     0  00:46        0.86
  YS02005654           JUNCTION     0.14     0.65    11.40     0  00:47        0.65
  YS02005655           JUNCTION     0.06     0.15    10.78     0  00:47        0.15
  YS02005595           JUNCTION     0.36     1.36    11.04     0  00:41        1.36
  YS02005658           JUNCTION     0.11     0.48    11.39     0  00:45        0.43
  YS02005659           JUNCTION     0.06     0.15    10.81     0  00:47        0.15
  YS02005661           JUNCTION     0.14     0.64    11.35     0  00:47        0.63
  YS02005662           JUNCTION     0.05     0.14    10.76     0  00:47        0.14
  YS02005664           JUNCTION     0.15     0.57    11.16     0  00:47        0.56
  YS02005665           JUNCTION     0.05     0.12    10.69     0  00:47        0.12
  YS02005668           JUNCTION     0.05     0.13    10.29     0  00:47        0.13
  YS02005667           JUNCTION     0.28     0.72    10.74     0  00:47        0.71
  YS02005571           JUNCTION     0.16     0.42     9.90     0  00:46        0.38
  YS02005572           JUNCTION     0.11     0.22     9.58     0  00:49        0.22
  YS02005576           JUNCTION     0.12     0.24    10.00     0  00:48        0.24
  YS02005577           JUNCTION     0.11     0.21     9.69     0  00:48        0.21
  YS02005579           JUNCTION     0.23     1.12    10.74     0  00:46        0.91
  YS02005580           JUNCTION     0.14     0.70    10.23     0  00:46        0.54
  YS02005582           JUNCTION     0.33     0.86    10.94     0  00:45        0.86
  YS02005583           JUNCTION     0.17     0.94    10.94     0  00:45        0.41
  YS02005612           JUNCTION     0.46     1.59     9.72     0  00:46        1.59
  YS02005615           JUNCTION     0.06     0.15    11.64     0  00:46        0.15
  YS02005616           JUNCTION     0.05     0.12    10.94     0  00:46        0.12
  YS02005618           JUNCTION     0.08     0.24    11.10     0  00:47        0.24
  YS02005619           JUNCTION     0.05     0.14    10.69     0  00:47        0.14
  YS02005621           JUNCTION     0.09     0.28    11.39     0  00:46        0.28
  YS02005622           JUNCTION     0.04     0.11    11.08     0  00:46        0.11
  YS02005625           JUNCTION     0.04     0.10    11.12     0  00:46        0.10
  YS02005627           JUNCTION     0.11     0.44    11.37     0  00:45        0.38
  YS02005628           JUNCTION     0.04     0.11    11.01     0  00:46        0.11
  YS02005630           JUNCTION     0.10     0.45    11.53     0  00:45        0.38
  YS02005631           JUNCTION     0.05     0.13    11.00     0  00:47        0.13
  YS02005633           JUNCTION     0.10     0.46    11.59     0  00:46        0.37
  YS02005634           JUNCTION     0.05     0.14    10.98     0  00:47        0.14
  YS02005636           JUNCTION     0.11     0.53    11.53     0  00:45        0.50
  YS02005637           JUNCTION     0.06     0.16    10.92     0  00:47        0.16
  YS02005639           JUNCTION     0.10     0.44    11.07     0  00:46        0.39
  YS02005640           JUNCTION     0.06     0.16    10.49     0  00:47        0.16
  YS02005642           JUNCTION     0.08     0.22    11.05     0  00:47        0.22
  YS02005644           JUNCTION     0.13     0.73    11.84     0  00:47        0.72
  YS02005645           JUNCTION     0.08     0.21    11.01     0  00:47        0.20
  YS02005647           JUNCTION     0.20     1.03    11.92     0  00:46        1.03
  YS02005648           JUNCTION     0.08     0.23    11.02     0  00:46        0.23
  YS02005650           JUNCTION     0.15     0.74    11.62     0  00:47        0.72
  YS02005671           JUNCTION     0.04     0.10    10.33     0  00:47        0.10
  YS02005673           JUNCTION     0.08     0.23    10.58     0  00:47        0.23
  YS02005674           JUNCTION     0.06     0.14    10.04     0  00:47        0.14
  YS02005676           JUNCTION     0.00     0.00    10.24     0  00:00        0.00
  YS02005680           JUNCTION     0.05     0.14    10.24     0  00:47        0.14
  YS02005682           JUNCTION     0.00     0.00    10.06     0  00:00        0.00
  YS02005683           JUNCTION     0.03     0.09     9.98     0  00:47        0.09
  YS02005376           JUNCTION     0.78     1.01    11.10     0  00:28        1.01
  YS02005378           JUNCTION     1.31     1.62    11.14     0  00:28        1.62
  YS02005381           JUNCTION     1.19     1.57    11.20     0  00:28        1.57
  YS02005624           JUNCTION     0.23     0.49    11.38     0  00:46        0.49
  YS02005384           JUNCTION     0.38     1.12    10.78     0  00:28        0.53
  YS02005677           JUNCTION     0.06     0.16    10.24     0  00:47        0.16
  YSB1105              JUNCTION     0.27     0.55    10.03     0  00:46        0.51
  YSB1106              JUNCTION     0.25     2.05    11.89     0  00:46        1.97
  YSB1109              JUNCTION     0.31     1.94    11.88     0  00:46        1.90
  YSB1112              JUNCTION     0.31     1.83    11.96     0  00:46        1.82
  YSB1115              JUNCTION     0.29     1.90    12.20     0  00:45        1.60
  YSB1118              JUNCTION     0.30     1.80    12.34     0  00:46        1.54
  YSB1121              JUNCTION     0.37     1.70    12.37     0  00:45        1.70
  YSB1124              JUNCTION     0.23     1.60    12.43     0  00:45        1.55
  YSB1128              JUNCTION     0.43     1.85    12.43     0  00:41        1.51
  YSB1132              JUNCTION     0.48     1.90    12.35     0  00:41        1.63
  YSB1228              JUNCTION     0.06     0.16    11.01     0  00:46        0.16
  YSB1202              JUNCTION     0.97     1.50    12.39     0  00:38        1.46
  YSB1135              JUNCTION     0.60     2.00    12.26     0  00:41        1.82
  YSB1138              JUNCTION     0.69     1.90    12.07     0  00:41        1.90
  YSB1141              JUNCTION     0.72     2.00    11.83     0  00:41        1.86
  YSB1145              JUNCTION     0.73     2.00    11.69     0  00:41        1.85
  YSB1148              JUNCTION     0.79     2.00    11.50     0  00:41        1.89
  YSB1151              JUNCTION     0.98     2.08    11.31     0  00:41        2.00
  YSB1154              JUNCTION     1.12     2.10    11.16     0  00:41        2.10
  YSB1198              JUNCTION     0.18     1.60    12.39     0  00:42        1.17
  YSB1192              JUNCTION     0.36     1.90    12.17     0  00:42        1.69
  YSB6556              JUNCTION     0.96     1.80    10.97     0  00:41        1.80
  YSB1205              JUNCTION     1.15     1.65    12.35     0  00:38        1.65
  YSB1209              JUNCTION     1.12     1.65    12.22     0  00:38        1.65
  YSB1212              JUNCTION     1.02     1.60    12.13     0  00:38        1.60
  YSB1215              JUNCTION     1.02     1.69    12.04     0  00:55        1.69
  YSB1218              JUNCTION     1.02     1.75    11.94     0  00:44        1.75
  YSB1221              JUNCTION     0.95     1.58    11.55     0  00:53        1.58
  YSB1224              JUNCTION     0.84     1.33    11.18     0  00:49        1.33
  YSB1195              JUNCTION     0.32     1.90    12.28     0  00:42        1.59
  YSB1189              JUNCTION     0.46     1.80    11.96     0  00:42        1.80
  YSB1186              JUNCTION     0.52     1.94    11.81     0  00:42        1.88
  YSB1183              JUNCTION     0.66     2.05    11.64     0  00:42        2.01
  YSB1180              JUNCTION     0.69     1.95    11.46     0  00:42        1.93
  YSB1177              JUNCTION     0.95     2.05    11.24     0  00:42        2.05
  YSB1174              JUNCTION     1.01     1.95    11.06     0  00:44        1.95
  YSB1171              JUNCTION     1.18     1.95    10.85     0  00:41        1.95
  YS02006553           JUNCTION     1.08     2.06     8.34     0  00:44        1.98
  YS02006561           JUNCTION     0.37     1.36     8.02     0  00:44        0.91
  YS02006562           JUNCTION     0.86     2.00     8.51     0  00:44        1.78
  YS02006556           JUNCTION     1.05     2.14     8.45     0  00:44        1.97
  YS02006558           JUNCTION     1.09     2.22     8.49     0  00:44        2.03
  YS6132               JUNCTION     0.55     2.96    10.29     0  00:47        1.40
  YS6137               JUNCTION     0.27     2.75    10.54     0  00:47        1.18
  YS6189               JUNCTION     0.38     2.73    10.52     0  00:47        1.36
  YS6184               JUNCTION     0.37     2.35    10.24     0  00:50        1.44
  YS6179               JUNCTION     0.32     2.58    10.56     0  00:50        1.38
  YS6176               JUNCTION     0.23     2.37    10.57     0  00:47        1.18
  YS6171               JUNCTION     0.24     2.10    10.51     0  00:47        1.07
  YS6168               JUNCTION     0.26     2.00    10.51     0  00:47        1.07
  YS6164               JUNCTION     0.09     1.90    10.63     0  00:47        0.84
  YS6162               JUNCTION     0.14     2.10    10.75     0  00:47        0.91
  YS6187               JUNCTION     0.42     2.69    10.47     0  00:47        1.41
  YS6363               JUNCTION     0.32     3.05    10.84     0  00:47        1.17
  YS6360               JUNCTION     0.44     2.77    10.57     0  00:50        1.41
  YS6354               JUNCTION     0.42     2.60    10.75     0  00:47        1.88
  YS6351               JUNCTION     0.50     2.50    10.71     0  00:47        2.27
  YS6350               JUNCTION     0.56     2.50    10.72     0  00:46        2.50
  YS6348               JUNCTION     0.52     2.45    10.85     0  00:45        2.45
  YS6344               JUNCTION     0.34     2.27    10.86     0  00:49        2.26
  YS6375               JUNCTION     0.09     0.32     8.74     0  00:47        0.32
  YS6377               JUNCTION     0.15     0.38     8.74     0  00:47        0.38
  YS6381               JUNCTION     0.17     0.44     8.57     0  00:47        0.44
  YS6386               JUNCTION     0.20     0.52     8.50     0  00:47        0.52
  YS6390               JUNCTION     0.41     0.63     8.32     0  00:47        0.63
  YS6394               JUNCTION     0.11     0.25     8.17     0  00:48        0.25
  YS6404               JUNCTION     0.51     3.00    10.23     0  00:47        1.21
  YS6401               JUNCTION     0.17     0.42     7.63     0  00:47        0.41
  YS02004319           JUNCTION     0.31     1.18    20.80     0  00:41        1.18
  YS02004320           JUNCTION     0.00     0.00    22.64     0  00:58        0.00
  YS02004321           JUNCTION     0.00     0.00    26.80     0  00:58        0.00
  YS02004307           JUNCTION     0.15     0.52    11.05     0  00:48        0.52
  YS02004309           JUNCTION     0.73     1.55    13.07     0  00:34        1.55
  YS02004312           JUNCTION     0.48     1.48    14.91     0  00:39        1.48
  YS02004314           JUNCTION     0.35     1.28    16.99     0  00:39        1.28
  YS02004316           JUNCTION     0.36     1.36    19.13     0  00:41        1.36
  YS02001783           JUNCTION     0.58     1.57     7.71     0  00:44        1.25
  YS02001784           JUNCTION     0.57     1.35     7.42     0  00:44        1.13
  YS02001786           JUNCTION     0.46     1.23     7.26     0  00:44        0.89
  YS02001788           JUNCTION     0.34     0.62     6.60     0  00:46        0.62
  YS02001790           JUNCTION     0.39     0.72     6.36     0  00:46        0.71
  YS02001791           JUNCTION     0.24     0.43     5.90     0  00:58        0.43
  YS02001793           JUNCTION     0.13     0.30     5.13     0  00:46        0.28
  YS02003309           JUNCTION     0.50     1.21     9.77     0  00:32        1.04
  YS02003306           JUNCTION     0.60     1.16     9.60     0  00:32        1.16
  YS02003269           JUNCTION     0.13     0.17     7.76     0  00:43        0.17
  YS02003272           JUNCTION     0.34     1.03     8.76     0  00:32        0.59
  YS02003278           JUNCTION     0.67     1.21     9.13     0  00:56        1.21
  YS02003281           JUNCTION     0.72     1.39     9.47     0  00:42        1.39
  YS02003284           JUNCTION     0.81     1.40     9.41     0  00:42        1.40
  YS02003287           JUNCTION     0.76     1.27     9.34     0  00:32        1.27
  YS02003290           JUNCTION     0.62     1.11     9.40     0  00:52        1.11
  YS02003294           JUNCTION     0.77     1.24     9.42     0  00:32        1.24
  YS02003275           JUNCTION     0.50     0.99     8.90     0  00:32        0.91
  YS02003297           JUNCTION     0.75     1.22     9.43     0  00:32        1.22
  YS02003300           JUNCTION     0.69     1.15     9.42     0  00:32        1.15
  YS02003303           JUNCTION     0.67     1.14     9.46     0  00:32        1.14
  YSB1227              JUNCTION     0.01     0.11    11.01     0  00:46        0.10
  CaochengRainPumpOutfall1 OUTFALL      0.00     0.00     6.00     0  00:00        0.00
  JiankangRainPumpOutfall2 OUTFALL      0.00     0.00     6.00     0  00:00        0.00
  JiankangRainPumpOutfall1 OUTFALL      0.00     0.00     6.00     0  00:00        0.00
  CaochengRainPumpOutfall2 OUTFALL      0.00     0.00     6.00     0  00:00        0.00
  YS02005684           OUTFALL      0.03     0.08     8.49     0  00:47        0.08
  YS02005681           OUTFALL      0.05     0.14     9.36     0  00:47        0.14
  YS02005678           OUTFALL      0.06     0.16     8.69     0  00:47        0.16
  YS02005675           OUTFALL      0.05     0.14     8.68     0  00:47        0.14
  YS02005672           OUTFALL      0.04     0.10     8.44     0  00:47        0.10
  YS02005669           OUTFALL      0.05     0.13     8.84     0  00:47        0.13
  YS02005666           OUTFALL      0.05     0.12     8.80     0  00:47        0.12
  YS02005663           OUTFALL      0.05     0.14     8.87     0  00:47        0.14
  YS02005660           OUTFALL      0.06     0.15     8.96     0  00:47        0.15
  YS02005657           OUTFALL      0.00     0.00     8.74     0  00:00        0.00
  YS02005652           OUTFALL      0.07     0.19     8.81     0  00:47        0.19
  YS02005649           OUTFALL      0.08     0.23     8.93     0  00:46        0.23
  YS02005646           OUTFALL      0.08     0.20     8.20     0  00:47        0.20
  YS02005643           OUTFALL      0.08     0.22     8.78     0  00:47        0.22
  YS02005641           OUTFALL      0.06     0.16     8.85     0  00:47        0.16
  YS02005638           OUTFALL      0.06     0.16     8.82     0  00:47        0.16
  YS02005635           OUTFALL      0.05     0.14     8.80     0  00:47        0.14
  YS02005632           OUTFALL      0.05     0.13     8.69     0  00:47        0.13
  YS02005629           OUTFALL      0.04     0.11     8.59     0  00:47        0.11
  YS02005626           OUTFALL      0.04     0.10     8.62     0  00:46        0.10
  YS02005623           OUTFALL      0.04     0.11     8.59     0  00:46        0.11
  YS02005620           OUTFALL      0.05     0.14     8.93     0  00:47        0.14
  YS02005617           OUTFALL      0.05     0.12     8.96     0  00:46        0.12
  YSB1103              OUTFALL      0.27     0.60     8.60     0  00:46        0.60
  YSB1229              OUTFALL      0.06     0.16     8.96     0  00:46        0.16
  YS02005548           OUTFALL      0.06     0.15     9.15     0  00:46        0.15
  YS02005552           OUTFALL      0.06     0.14     8.77     0  00:47        0.14
  YS02005555           OUTFALL      0.07     0.14     8.87     0  00:48        0.14
  YS02005558           OUTFALL      0.07     0.14     8.84     0  00:48        0.14
  YS02005561           OUTFALL      0.08     0.15     8.83     0  00:49        0.15
  YS02005564           OUTFALL      0.07     0.13     8.61     0  00:48        0.13
  YS02005567           OUTFALL      0.09     0.17     8.71     0  00:48        0.17
  YS02005570           OUTFALL      0.10     0.20     8.91     0  00:48        0.20
  YS02005574           OUTFALL      0.11     0.22     9.06     0  00:49        0.22
  YS02005578           OUTFALL      0.11     0.21     8.99     0  00:48        0.21
  WS02005134           OUTFALL      0.00     0.00     8.74     0  00:00        0.00
  YS02005581           OUTFALL      0.13     0.30     9.10     0  00:46        0.30
  YS02005584           OUTFALL      0.15     0.30     9.26     0  00:44        0.30
  YS02005593           OUTFALL      0.24     0.28     9.00     0  00:44        0.28
  YS02005596           OUTFALL      0.16     0.30     8.84     0  00:41        0.30
  YS02005374           OUTFALL      0.14     0.30     8.54     0  00:42        0.30
  YS02005375           OUTFALL      0.13     0.30     8.69     0  00:42        0.30
  YS02005607           OUTFALL      0.13     0.30     7.53     0  00:43        0.30
  YS02005610           OUTFALL      0.09     0.22     8.84     0  00:47        0.22
  YS02005613           OUTFALL      0.15     0.30     8.58     0  00:44        0.30
  HS02003172           OUTFALL      0.17     0.45     5.90     0  00:48        0.45
  YS6395               OUTFALL      0.11     0.25     6.68     0  00:48        0.25
  YS6405               OUTFALL      0.16     0.40     3.85     0  00:48        0.40
  WSC                  OUTFALL      0.60     0.80     5.00     0  00:38        0.80
  JiankangQianchi      STORAGE      2.92     4.22     5.02     0  01:09        4.22
  CaochengTiaoxuchi    STORAGE      0.88     1.24     6.74     0  01:00        1.24
  XierchiQianchi       STORAGE      7.03     7.47     5.47     0  02:02        7.47
  
  
  *******************
  Node Inflow Summary
  *******************
  
  -------------------------------------------------------------------------------------------------
                                  Maximum  Maximum                  Lateral       Total        Flow
                                  Lateral    Total  Time of Max      Inflow      Inflow     Balance
                                   Inflow   Inflow   Occurrence      Volume      Volume       Error
  Node                 Type           LPS      LPS  days hr:min    10^6 ltr    10^6 ltr     Percent
  -------------------------------------------------------------------------------------------------
  WS02001211           JUNCTION      7.35   219.05     0  01:17       0.054        1.19       4.001
  WS02001212           JUNCTION      0.00   233.37     0  01:17           0        1.15       2.200
  WS02001213           JUNCTION      0.00   244.12     0  01:17           0        1.13       3.118
  WS02003069           JUNCTION      0.32  2520.50     0  00:48     0.00235        10.1       0.655
  WS02003072           JUNCTION      0.00  2520.64     0  00:48           0        10.1       0.574
  WS02003073           JUNCTION      1.82  3088.90     0  00:48      0.0134        13.4       0.279
  WS02003076           JUNCTION      0.00  3088.90     0  00:48           0        13.4       0.300
  WS02003060           JUNCTION     16.53  2520.35     0  00:48       0.122        10.2       0.530
  WS02003066           JUNCTION      0.00  2343.69     0  00:47           0        9.04       0.106
  WS02003059           JUNCTION      0.00   250.87     0  01:17           0        1.13       4.953
  WS02003115           JUNCTION      0.00   477.08     0  00:56           0       0.969       0.432
  WS02003116           JUNCTION      0.00   276.24     0  00:25           0        1.07       0.769
  WS02003118           JUNCTION      0.09   247.08     0  00:32    2.67e-06        1.07       1.403
  WS02003215           JUNCTION      0.17  1886.10     0  00:47    2.01e-05        2.46       1.095
  WS02003110           JUNCTION      0.18   404.31     0  00:47     0.00132       0.529       1.408
  WS02003111           JUNCTION      1.49   882.64     0  00:47      0.0107         1.4       0.506
  WS02005155           JUNCTION      0.38   404.11     0  00:47      0.0028       0.528       1.875
  WS02005154           JUNCTION    403.72   403.72     0  00:47       0.524       0.526       1.125
  WS02005193           JUNCTION      0.00   181.30     0  00:28           0      0.0153     138.207
  WS02005196           JUNCTION      0.00   135.59     0  00:29           0     0.00566     550.370
  WS02003067           JUNCTION      0.00  1869.19     0  00:47           0        7.16       0.195
  WS02004401           JUNCTION      0.00  1109.34     0  01:27           0         5.8       0.543
  WS02004402           JUNCTION      0.00  1109.19     0  01:27           0        5.78       0.483
  WS02004403           JUNCTION      0.00  1109.32     0  01:27           0        5.76       0.418
  WS02004404           JUNCTION      0.16  1109.50     0  01:27     0.00119        5.74       0.290
  WS02004406           JUNCTION      0.00  1109.69     0  01:23           0        5.72       0.716
  WS02004409           JUNCTION      0.00  1834.16     0  00:45           0        7.94       0.435
  WS02004410           JUNCTION      0.00  1869.32     0  00:47           0        7.97       0.443
  WS02004411           JUNCTION      0.00  1868.99     0  00:47           0        7.27       0.469
  WS02004412           JUNCTION      0.00  1869.13     0  00:47           0        7.24       0.468
  WS02004413           JUNCTION      0.00  1869.22     0  00:47           0         7.2       0.605
  WS02004405           JUNCTION      0.18  1109.94     0  01:23    0.000434        5.73       0.421
  WS02006109           JUNCTION      1.92  1308.01     0  00:00     0.00968        6.53       0.346
  WS02006110           JUNCTION      0.28  1108.61     0  01:27    0.000165        5.93      -0.329
  WS02006111           JUNCTION      0.04  1176.04     0  00:00    3.97e-06        5.92      -0.298
  WS02006112           JUNCTION      0.48  2307.30     0  00:00    2.66e-05        5.94       0.278
  WS02006113           JUNCTION      0.00  1108.62     0  01:27           0         5.9      -0.360
  WS02006115           JUNCTION      0.00  1366.62     0  00:00           0        5.85       0.562
  WS02006116           JUNCTION      0.31  1109.32     0  01:27    0.000394        5.82       0.467
  WS02006230           JUNCTION     10.44  1027.90     0  00:45      0.0756        3.18       0.515
  WS02006231           JUNCTION      0.51   453.56     0  00:46     0.00131         1.9       0.862
  WS02006232           JUNCTION      0.20   453.64     0  00:46    8.81e-05        1.92       0.943
  WS02006234           JUNCTION      0.12   453.48     0  00:46    3.78e-06        1.93       0.637
  WS02006235           JUNCTION      0.27   415.19     0  00:47    0.000483        2.01       0.545
  WS02006238           JUNCTION      0.00   415.31     0  00:47           0        1.96       0.374
  WS02006240           JUNCTION      0.00   415.02     0  00:47           0        1.99       0.830
  WS02006242           JUNCTION      0.25   415.11     0  00:47    0.000135        2.01       0.983
  WS02006243           JUNCTION      0.62   279.24     0  00:26     0.00134        1.51       1.075
  WS02006245           JUNCTION      0.00   287.74     0  00:27           0        1.53       0.876
  WS02006247           JUNCTION      0.00   298.98     0  00:27           0        1.54       0.781
  WS02006248           JUNCTION      0.00   346.43     0  00:36           0        1.86       0.591
  WS02006249           JUNCTION      0.00  1378.46     0  00:47           0        5.28       0.319
  WS02006239           JUNCTION      0.00   415.16     0  00:47           0        1.97       0.646
  WS02006251           JUNCTION      0.08  1705.57     0  00:47    0.000566         5.5       0.330
  WS02006252           JUNCTION      0.00   717.48     0  00:48           0        2.18      -0.007
  WS02006253           JUNCTION     54.75  1705.78     0  00:47      0.0702        4.05       0.502
  WS02006256           JUNCTION      0.00   300.00     0  00:33           0        1.61       0.065
  WS02004138           JUNCTION      0.00   190.00     0  00:29           0        1.17       0.255
  WS02004139           JUNCTION      0.32   191.73     0  00:44     0.00236        1.17       3.316
  WS02004407           JUNCTION      0.00  1833.98     0  00:45           0        7.99       0.328
  WS02006228           JUNCTION      1.16  1289.33     0  00:45    0.000815        6.51       0.234
  WS02006229           JUNCTION      0.89  2307.45     0  00:45    0.000727        9.46       0.270
  WS02006280           JUNCTION      0.23  2306.78     0  00:45    0.000321        9.27       0.029
  WS02006284           JUNCTION      0.16  2306.83     0  00:45    0.000728        9.28       0.142
  WS02006287           JUNCTION      0.19  2306.93     0  00:45    7.11e-05        9.29       0.099
  WS02003091           JUNCTION      0.42  1200.35     0  00:00     0.00088        3.49      -1.128
  WS02003203           JUNCTION      0.34  2264.56     0  00:00     0.00014         5.3       0.190
  WS6145               JUNCTION      0.20   235.15     0  00:46    0.000333        0.09       0.348
  WS6147               JUNCTION      0.00   235.56     0  00:46           0       0.079       0.217
  WS6150               JUNCTION      0.05   235.84     0  00:46    0.000365      0.0681       0.457
  WS6152               JUNCTION      0.58   237.80     0  00:46     0.00424      0.0572       0.732
  WS6155               JUNCTION      0.01   240.06     0  00:46    4.03e-05      0.0423       0.444
  WS6156               JUNCTION      0.72   237.72     0  00:46     0.00383      0.0311       0.360
  WS6136               JUNCTION      0.21   745.21     0  00:45    5.19e-05        1.34       0.046
  WS6140               JUNCTION      0.14   233.79     0  00:46    0.000112        0.11       0.122
  WS6142               JUNCTION      0.15   234.58     0  00:46     0.00014       0.101       0.225
  WS6325               JUNCTION      0.17   154.34     0  00:45    0.000177      0.0888       1.550
  WS6327               JUNCTION      0.11   154.32     0  00:45    0.000447      0.0791       0.151
  WS6329               JUNCTION      0.51   154.63     0  00:45      0.0019      0.0683       0.206
  WS6332               JUNCTION      0.35   154.81     0  00:45    0.000767      0.0554       0.196
  WS6158               JUNCTION      1.60   251.43     0  00:46      0.0118      0.0155      -1.097
  WS6335               JUNCTION      0.67   155.37     0  00:45     0.00363      0.0433       0.334
  WS6338               JUNCTION      0.35   155.57     0  00:45      0.0011      0.0284       0.227
  WS6340               JUNCTION      0.23   158.13     0  00:45    0.000191      0.0156       0.106
  WS6342               JUNCTION      0.65   154.57     0  00:45     0.00316     0.00636      -0.904
  WS6135               JUNCTION      0.04   744.87     0  00:45    1.19e-05        1.44       0.442
  WS6396               JUNCTION      0.00   547.37     0  00:52           0        1.34       0.179
  WS6399               JUNCTION      0.00   547.34     0  00:52           0        1.34       0.066
  WS02003082           JUNCTION      0.44   590.33     0  00:40     0.00142        3.45       0.528
  WS02003077           JUNCTION      0.60   590.97     0  00:40     0.00441         3.4       0.215
  WS02003080           JUNCTION      0.00   590.40     0  00:40           0        3.41       0.455
  WS02003083           JUNCTION      0.00   590.27     0  00:40           0        3.45       0.261
  WS02003084           JUNCTION      0.04   590.23     0  00:40    0.000324        3.46       0.263
  WS02003085           JUNCTION      0.00   590.15     0  00:40           0        3.47       0.177
  WS02003086           JUNCTION      0.49   655.05     0  00:01     0.00361        3.48       0.429
  WS02003087           JUNCTION      0.00  1086.59     0  00:00           0        3.49       0.303
  WS02003088           JUNCTION      0.55  2146.84     0  00:00     0.00151        3.52       0.397
  WS02003089           JUNCTION      0.21  1590.77     0  00:00    0.000303        3.51      -0.266
  WS02003090           JUNCTION      0.37  1113.92     0  00:00    0.000454        3.49      -0.685
  WS02003081           JUNCTION      0.00   590.41     0  00:40           0        3.43       0.414
  WS02003122           JUNCTION      0.00   247.32     0  00:32           0        1.05       1.430
  WS02003187           JUNCTION    507.43   684.47     0  00:47       0.712        1.72       0.751
  WS02003188           JUNCTION      0.48   403.48     0  00:56       0.001        1.56       0.796
  WS02003190           JUNCTION      0.12   608.63     0  00:56     3.8e-06        2.36       0.572
  WS02003193           JUNCTION    879.48  1143.11     0  00:47        1.23        2.23       0.785
  WS02003195           JUNCTION      0.31   305.97     0  00:01    0.000546        1.09       1.390
[...]
  WS02003089WS02003088        1.73      1.74      1.76      1.67         1.67
  WS02003088WS02003087        1.76      1.77      1.76      1.82         1.76
  WS02003087WS02003086        1.70      1.70      1.77      1.75         0.01
  WS02003086WS02003085        1.69      1.69      1.74      1.80         0.01
  WS02003085WS02003084        1.70      1.70      1.70      1.71         1.69
  WS02003084WS02003083        1.70      1.71      1.70      1.88         1.69
  WS02003083WS02003082        1.68      1.68      1.71      1.79         0.01
  WS02003082WS02003081        1.67      1.68      1.67      1.78         1.67
  WS02003081WS02003080        1.67      1.68      1.67      1.68         1.67
  WS02003080WS02003077        0.53      0.53      1.67      1.68         0.01
  WS02003073WS02003076        0.63      0.63      1.45      0.19         0.01
  HS02004901HS02004770        0.67      0.67      0.68      0.02         0.01
  HS02004876HS02004881        0.68      0.70      0.68      1.62         0.68
  HS02004870HS02004876        0.62      0.62      0.70      0.01         0.01
  HS02004049HS02004052        0.11      0.11      0.14      0.01         0.01
  HS02004048HS02004049        0.21      0.31      0.21      0.37         0.21
  HS02004046HS02004048        0.14      0.14      0.31      0.01         0.01
  HS02004043HS02004046        0.12      0.12      0.17      0.01         0.01
  HS02004041HS02004043        0.01      0.01      0.11      0.01         0.01
  HS02004028HS02004027        0.01      0.13      0.01      0.15         0.01
  HS02003143HS02003065        0.55      0.55      0.74      0.01         0.01
  HS02004842HS02004848        0.54      0.54      0.75      0.01         0.01
  HS02004837HS02004842        0.57      0.57      0.75      0.01         0.01
  HS02004830HS02004837        0.57      0.57      0.63      0.01         0.01
  HS02004824HS02004830        0.63      0.63      0.67      0.01         0.01
  HS02004817HS02004824        0.67      0.67      1.56      0.01         0.01
  HS02004770HS02004777        0.67      0.67      0.69      0.01         0.01
  HS02004799HS02004480        0.83      0.83      0.91      0.93         0.01
  HS02004792HS02004799        0.78      0.78      0.91      0.01         0.01
  HS02004788HS02004792        0.62      0.62      0.78      0.01         0.01
  HS02004785HS02004788        0.62      0.63      0.62      1.55         0.52
  HS02004777HS02004785        0.63      0.63      0.69      0.01         0.01
  HS02004480HS02004478        0.77      0.83      0.77      1.69         0.77
  HS02004479HS02004480        0.84      0.84      0.87      0.01         0.01
  HS02003013HS02003010        0.30      0.30      0.34      0.18         0.18
  HS02003010HS02003007        0.29      0.29      0.30      0.33         0.29
  HS02003007HS02003004        0.30      0.30      0.38      0.15         0.15
  HS02003004HS02003001        0.01      0.38      0.01      0.92         0.01
  HS02003065HS02003056        0.73      0.73      0.87      0.01         0.01
  HS02003042HS02003053        0.24      0.24      0.69      0.01         0.01
  HS02003028HS02003021        0.18      0.18      0.25      0.01         0.01
  HS02003021HS02003018        0.27      0.27      0.29      0.08         0.08
  HS02003018HS02003017        0.29      0.29      0.30      0.06         0.05
  HS02003017HS02003013        0.30      0.30      0.30      0.24         0.22
  HS02004862HS02004870        0.59      0.59      0.62      0.27         0.26
  HS02004848HS02004852        0.54      0.54      0.57      0.02         0.01
  HS02004856HS02004862        0.55      0.55      0.59      0.01         0.01
  HS02004852HS02004856        0.57      0.57      0.60      0.02         0.01
  HS02004024HS02004022        0.01      0.01      0.18      0.01         0.01
  HS02004022HS02004021        0.18      0.18      0.27      0.01         0.01
  HS02004021HS02004019        0.27      0.27      0.41      0.21         0.21
  HS02004019HS02003162        0.01      0.41      0.01      0.43         0.01
  HS02004052HS02004053        0.13      0.14      0.13      0.16         0.13
  HS02003122HS02003125        1.49      1.49      1.50      0.12         0.16
  HS02003119HS02003122        1.48      1.48      1.50      0.01         0.01
  HS02003116HS02003119        1.03      1.03      1.48      0.01         0.01
  HS02003111HS02003116        0.01      0.01      1.10      0.01         0.01
  HS02004018HS02004019        0.27      0.27      0.41      0.01         0.01
  HS02003056HS02003136        0.75      0.75      1.52      0.01         0.01
  HS02004017HS02004018        0.25      0.25      0.27      0.01         0.01
  HS02004013HS02004017        0.08      0.08      0.25      0.09         0.08
  HS02004010HS02004013        0.01      0.01      0.08      0.01         0.01
  HS02004802HS02004478        0.78      0.78      0.85      0.18         0.01
  HS02004478WS02006287        0.65      0.65      0.83      0.01         0.01
  HS02003148HS02003145        0.01      0.01      0.11      0.01         0.01
  HS02003145HS02003143        0.11      0.11      0.52      0.10         0.09
  HS02003136WS02003203        1.53      1.53      1.64      0.01         0.01
  HS02003084HS02003088        0.01      0.01      0.01      0.01         0.01
  HS02003108HS02003111        0.11      0.11      0.33      0.01         0.01
  HS02003100HS02003108        0.05      0.05      0.11      0.01         0.01
  HS02003088HS02003100        0.04      0.04      0.05      0.01         0.01
  HS02004817HS02004807        0.82      0.82      1.56      0.01         0.01
  HS02004807HS02004802        0.82      0.82      0.84      0.32         0.32
  HS02003053HS02003056        0.69      0.69      0.87      0.01         0.01
  HS02003039HS02003042        0.30      0.31      0.34      0.19         0.02
  HS02003036HS02003039        0.14      0.14      0.18      0.01         0.01
  YS02001759YS02001757        0.03      0.06      0.03      0.14         0.03
  YS02001762YS02001759        0.06      0.06      0.06      0.12         0.06
  YS02001765YS02001762        0.06      0.06      0.06      0.04         0.02
  YS02001770YS02001767        0.06      0.08      0.06      0.55         0.06
  YS02001774YS02001770        0.08      0.08      0.10      0.01         0.01
  YS02001779YS02001774        0.04      0.04      0.10      0.01         0.01
  YS02001767YS02001765        0.06      0.06      0.06      0.14         0.06
  YS02006561YS02001783        0.37      0.37      0.56      0.01         0.01
  YS02001783YS02001784        0.53      0.56      0.53      0.70         0.53
  YS02001784YS02001785        0.44      0.53      0.44      0.97         0.44
  YS02001790YS02001791        0.01      0.01      0.01      0.52         0.01
  YS02001910YS02001907        0.59      0.59      0.76      0.01         0.01
  YS02001786YS02001788        0.01      0.44      0.01      0.81         0.01
  YS02001915YS02001910        0.50      0.50      0.59      0.01         0.01
  YS02001918YS02001915        0.42      0.42      0.50      0.01         0.01
  YS02001923YS02001920        0.35      0.35      0.43      0.01         0.01
  YS02001926YS02001923        0.12      0.12      0.13      0.01         0.01
  YS02001929YS02001926        0.02      0.02      0.13      0.01         0.01
  YS02001932YS02001929        0.01      0.01      0.02      0.01         0.01
  YS02001935YS02001932        0.01      0.01      0.01      0.01         0.01
  YS02001920YS02001918        0.42      0.42      0.43      0.01         0.01
  YS02003290YS02003287        1.16      1.16      1.44      0.01         0.01
  YS02003294YS02003290        1.17      1.17      1.49      0.01         0.01
  YS02003297YS02003294        1.43      1.43      1.45      0.05         0.20
  YS02003275YS02003272        0.94      1.06      0.94      1.36         0.94
  YS02003300YS02003297        1.22      1.22      1.37      0.01         0.01
  YS02003303YS02003300        1.13      1.13      1.29      0.01         0.01
  YS02005550YS02005551        0.01      0.01      0.01      0.09         0.01
  YS02005568YS02005569        0.01      0.01      0.01      0.20         0.01
  YS02005582YS02005583        0.34      0.59      0.34      0.81         0.34
  YS02003272YS02003269        0.01      1.01      0.01      1.37         0.01
  YS02003278YS02003275        1.11      1.50      1.11      1.73         1.11
  YS02003281YS02003278        1.32      1.32      1.47      1.10         1.10
  YS02003284YS02003281        1.32      1.32      1.47      0.68         0.25
  YS02003287YS02003284        1.40      1.40      1.53      0.01         0.01
  YS02003306YS02003303        1.08      1.08      1.22      0.30         0.30
  YS02003309YS02003306        0.97      0.97      1.08      0.01         0.01
  YS02005600YS02005375        0.23      0.23      0.24      0.24         0.23
  YS02005384YS02005593        0.01      1.33      0.01      1.39         0.01
  YS02005595YS02005596        0.34      0.35      0.34      0.37         0.34
  YS02005612YS02005613        0.14      0.14      1.11      0.36         0.01
  YS02005553YS02005554        0.01      0.01      0.01      0.21         0.01
  YS02005556YS02005557        0.01      0.01      0.01      0.25         0.01
  YS02005562YS02005563        0.01      0.01      0.01      0.16         0.01
  YS02005571YS02005572        0.01      0.20      0.01      0.38         0.01
  YS02005579YS02005580        0.15      0.35      0.15      0.53         0.15
  YS02005580YS02005581        0.12      0.15      0.12      0.18         0.12
  YS02005583YS02005584        0.34      0.34      0.36      0.36         0.34
  YS02006553YS02006556        0.67      0.67      0.78      0.01         0.01
  YS02006556YS02006558        0.73      0.73      0.80      0.01         0.01
  YSB6556YSB1171              0.95      0.95      1.62      0.01         0.01
  YSB1202YSB1205              1.41      1.41      1.42      0.01         0.01
  YSB1205YSB1209              1.42      1.42      1.42      0.97         0.92
  YSB1209YSB1212              1.40      1.42      1.40      1.51         1.40
  YSB1212YSB1215              1.40      1.40      1.40      0.73         0.72
  YSB1215YSB1218              1.40      1.40      1.40      0.80         0.78
  YSB1218YSB1221              1.40      1.40      1.40      1.22         1.22
  YSB1221YSB1224              1.40      1.40      1.41      1.40         1.40
  YSB1224YSB1105              0.98      1.44      0.98      1.52         0.98
  YSB1189YSB1186              0.56      0.56      0.66      0.12         0.12
  YS02001907YS02006553        0.98      0.98      1.06      0.01         0.01
  YS02006562YS02006558        0.56      0.56      0.80      0.01         0.01
  YS02006558YS02006561        0.46      0.66      0.46      0.92         0.46
  YS6184YS6187                0.12      0.12      0.13      0.05         0.07
  YS6360YS6363                0.09      0.13      0.09      0.67         0.09
  YS6354YS6360                0.19      0.20      0.20      0.19         0.18
  YS6351YS6354                0.20      0.22      0.20      0.40         0.20
  YS6350YS6351                0.22      0.24      0.22      0.70         0.22
  YS6348YS6350                0.22      0.22      0.24      0.21         0.20
  YS6344YS6348                0.22      0.22      0.29      0.01         0.01
  YS6363YS6132                0.09      0.09      0.24      0.01         0.01
  YS6137YS6132                0.17      0.17      0.34      0.01         0.01
  YS6189YS6137                0.17      0.17      0.19      1.38         0.01
  YS6187YS6189                0.12      0.12      0.13      0.28         0.01
  YS6179YS6184                0.11      0.11      0.12      0.01         0.01
  YS6176YS6179                0.05      0.05      0.11      0.01         0.01
  YS6171YS6176                0.08      0.08      0.11      0.01         0.01
  YS6168YS6171                0.07      0.07      0.08      0.04         0.04
  YS6164YS6168                0.02      0.02      0.07      0.01         0.01
  YS6162YS6164                0.07      0.07      0.08      0.01         0.01
  YS6132YS6404                0.01      0.12      0.01      0.28         0.01
  YSB1106YSB1105              0.01      0.14      0.01      0.18         0.01
  YSB1109YSB1106              0.14      0.19      0.14      0.32         0.14
  YSB1112YSB1109              0.19      0.20      0.19      0.23         0.19
  YSB1115YSB1112              0.18      0.18      0.20      0.14         0.13
  YSB1118YSB1115              0.21      0.21      0.21      0.23         0.21
  YSB1121YSB1118              0.21      0.24      0.21      0.33         0.21
  YSB1124YSB1121              0.21      0.21      0.24      0.01         0.01
  YSB1105YSB1103              0.01      0.01      0.12      0.12         0.01
  YS02001754YS02001757        0.01      0.01      0.03      0.01         0.01
  YS02001882YS02001884        0.51      0.51      0.52      0.01         0.01
  YS02001884YS02001887        0.54      0.54      0.55      0.01         0.01
  YS02001890YS02001895        0.50      0.50      0.58      0.01         0.01
  YS02001895YS02001898        0.49      0.49      0.50      0.01         0.01
  YS02001898YS02001901        0.50      0.50      0.53      0.01         0.01
  YS02001901YS02001904        0.52      0.52      0.53      0.01         0.01
  YS02001904YS02001907        0.52      0.52      0.79      0.01         0.01
  YS02001887YS02001890        0.56      0.56      0.57      0.14         0.01
  YS02004309YS02004307        0.10      0.87      0.10      0.85         0.10
  YS02004319YS02004316        0.33      0.33      0.35      0.01         0.01
  YS02005376YS02005378        1.65      1.65      1.84      0.01         0.01
  YS02005378YS02005381        1.81      1.81      1.84      0.44         0.01
  YS02005381YS02005384        1.33      1.33      1.81      1.82         0.01
  YS02005598YS02005374        0.25      0.25      0.26      0.26         0.25
  YS02005602YS02005603        0.21      0.52      0.21      0.66         0.21
  YS02005603YS02005607        0.21      0.21      0.22      0.22         0.21
  YS02005621YS02005622        0.01      0.01      0.01      0.06         0.01
  YS02005624YS02005625        0.01      0.01      0.25      0.03         0.01
  YS02005630YS02005631        0.01      0.05      0.01      0.09         0.01
  YS02005633YS02005634        0.01      0.03      0.01      0.06         0.01
  YS02005636YS02005637        0.01      0.08      0.01      0.12         0.01
  YS02005639YS02005640        0.01      0.05      0.01      0.08         0.01
  YS02005627YS02005628        0.01      0.05      0.01      0.26         0.01
  YS02005644YS02005645        0.01      0.11      0.01      0.14         0.01
  YS02005650YS02005651        0.01      0.14      0.01      0.23         0.01
  YS02005653YS02005654        0.12      0.12      0.13      0.12         0.12
  YS02005654YS02005655        0.01      0.13      0.01      0.22         0.01
  YS02005658YS02005659        0.01      0.06      0.01      0.10         0.01
  YS02005661YS02005662        0.01      0.12      0.01      0.24         0.01
  YS02005664YS02005665        0.01      0.13      0.01      0.50         0.01
  YS02005667YS02005668        0.01      0.01      0.47      0.11         0.01
  YS02005647YS02005648        0.01      0.22      0.01      0.34         0.01
  YS02004312YS02004309        0.56      0.56      0.87      0.01         0.01
  YS02004314YS02004312        0.37      0.37      0.56      0.01         0.01
  YS02004316YS02004314        0.35      0.35      0.37      0.29         0.29
  YS02004320YS02004319        0.01      0.01      0.26      0.01         0.01
  YS6404YS6401                0.01      0.01      0.01      0.66         0.01
  YSB1132YSB1135              0.56      0.56      0.62      0.01         0.01
  YSB1135YSB1138              0.62      0.62      0.65      0.01         0.01
  YSB1138YSB1141              0.65      0.65      0.74      0.39         0.39
  YSB1141YSB1145              0.71      0.71      0.74      0.38         0.35
  YSB1148YSB1151              0.82      0.82      1.05      0.01         0.01
  YSB1151YSB1154              0.91      0.91      1.22      0.01         0.01
  YSB1154YSB6556              0.95      0.95      1.22      0.39         0.01
  YSB1128YSB1132              0.54      0.54      0.56      0.01         0.01
  YSB1145YSB1148              0.74      0.74      0.82      0.01         0.01
  YSB1198YSB1195              0.22      0.22      0.50      0.01         0.01
  YSB1195YSB1192              0.50      0.50      0.53      0.01         0.01
  YSB1192YSB1189              0.53      0.53      0.56      0.01         0.01
  YSB1186YSB1183              0.61      0.61      0.73      0.01         0.01
  YSB1183YSB1180              0.73      0.73      0.77      0.16         0.16
  YSB1180YSB1177              0.77      0.77      1.10      0.01         0.01
  YSB1177YSB1174              1.10      1.10      1.35      0.17         0.17
  YSB1174YSB1171              1.05      1.05      1.58      0.11         0.12
  YSB1171HS02004479           0.81      0.81      1.19      0.01         0.01
  YS02004307HS02004052        0.01      0.01      0.14      0.01         0.01
  HS02004881HS02006253        0.68      0.68      1.51      0.01         0.01
  WS0200404049WS6136          0.12      0.12      0.21      0.01         0.01
  HS02003125WS02003215        1.50      1.50      1.52      0.01         0.01
  YS02001793JiankangQianchi        0.01      0.01      2.03      0.01         0.01
  YS02001757CaochengTiaoxuchi        0.03      0.03      0.59      0.04         0.01
  WS02004041WS6409            1.01      1.01      1.10      1.09         1.01
  WSF200WS02003060            0.20      0.20      0.45      0.01         0.01
  HS02004053WS02004407        0.13      0.13      1.05      0.01         0.01
  HS02003036HS02003028        0.14      0.14      0.23      0.01         0.01
  
  
  ***************
  Pumping Summary
  ***************
  
  ---------------------------------------------------------------------------------------------------------
                                                  Min       Avg       Max     Total     Power    % Time Off
                        Percent   Number of      Flow      Flow      Flow    Volume     Usage    Pump Curve
  Pump                 Utilized   Start-Ups       LPS       LPS       LPS  10^6 ltr     Kw-hr    Low   High
  ---------------------------------------------------------------------------------------------------------
  CaochengSewagePump1     82.86           1      0.00    200.00    200.00     1.219      9.46    0.0    0.0
  CaochengSewagePump2     51.81           1      0.00    200.00    200.00     0.762      6.24    0.0    0.0
  CaochengRainPump1       47.49           1      0.00    683.00    683.00     2.385      3.04    0.0   48.5
  CaochengRainPump2        0.00           0      0.00      0.00      0.00     0.000      0.00    0.0    0.0
  JiankangSewagePump      72.78           1      0.00    300.00    300.00     1.606     24.69    0.0    0.0
  JiankangRainPump1       29.82           4      0.00   1000.00   1000.00     2.193     14.48    0.0    0.0
  JiankangRainPump2        0.00           0      0.00      0.00      0.00     0.000      0.00    0.0    0.0
  XierchiSewagePump1      91.81           1      0.00     95.00     95.00     0.641      3.96    0.0    0.0
  XierchiSewagePump2      76.34           1      0.00     95.00     95.00     0.533      3.12    0.0    0.0
  XierchiSewagePump3       0.00           0      0.00      0.00      0.00     0.000      0.00    0.0    0.0
  XierchiSewagePump4       0.00           0      0.00      0.00      0.00     0.000      0.00    0.0    0.0
  

  Analysis begun on:  Mon Oct 17 17:44:03 2022
  Analysis ended on:  Mon Oct 17 18:20:49 2022
  Total elapsed time: 00:36:46