
  EPA STORM WATER MANAGEMENT MODEL - VERSION 5.1 (Build 5.3.0.dev0)
  --------------------------------------------------------------

  WARNING 04: minimum elevation drop used for Conduit WS02004404WS02004405
  WARNING 03: negative offset ignored for Link YS02001904YS02001907
  
  *********************************************************
  NOTE: The summary statistics displayed in this report are
  based on results found at every computational time step,  
  not just on results from each reporting time step.
  *********************************************************
  
  ****************
  Analysis Options
  ****************
  Flow Units ............... LPS
  Process Models:
    Rainfall/Runoff ........ YES
    RDII ................... NO
    Snowmelt ............... NO
    Groundwater ............ NO
    Flow Routing ........... YES
    Ponding Allowed ........ NO
    Water Quality .......... NO
  Infiltration Method ...... HORTON
  Flow Routing Method ...... DYNWAVE
  Surcharge Method ......... EXTRAN
  Starting Date ............ 03/31/2017 00:00:00
  Ending Date .............. 03/31/2017 03:00:00
  Antecedent Dry Days ...... 8.0
  Report Time Step ......... 00:02:00
  Wet Time Step ............ 00:01:00
  Dry Time Step ............ 00:01:00
  Routing Time Step ........ 30.00 sec
  Variable Time Step ....... YES
  Maximum Trials ........... 8
  Number of Threads ........ 6
  Head Tolerance ........... 0.001500 m
  
  
  **************************        Volume         Depth
  Runoff Quantity Continuity     hectare-m            mm
  **************************     ---------       -------
  Total Precipitation ......         8.728        74.067
  Evaporation Loss .........         0.000         0.000
  Infiltration Loss ........         0.322         2.733
  Surface Runoff ...........         8.089        68.643
  Final Storage ............         0.322         2.733
  Continuity Error (%) .....        -0.057
  
  
  **************************        Volume        Volume
  Flow Routing Continuity        hectare-m      10^6 ltr
  **************************     ---------     ---------
  Dry Weather Inflow .......         0.171         1.710
  Wet Weather Inflow .......         8.087        80.874
  Groundwater Inflow .......         0.000         0.000
  RDII Inflow ..............         0.000         0.000
  External Inflow ..........         0.036         0.360
  External Outflow .........         4.333        43.329
  Flooding Loss ............         3.933        39.330
  Evaporation Loss .........         0.000         0.000
  Exfiltration Loss ........         0.000         0.000
  Initial Stored Volume ....         0.303         3.031
  Final Stored Volume ......         0.365         3.655
  Continuity Error (%) .....        -0.394
  
  
  *************************
  Highest Continuity Errors
  *************************
  Node YS02001884 (8.28%)
  Node YS02004320 (5.82%)
  Node YS6162 (2.82%)
  Node WS02003059 (2.58%)
  Node WS02001211 (2.55%)
  
  
  ***************************
  Time-Step Critical Elements
  ***************************
  Link YS02005655YS02005657 (39.15%)
  Link WS02004041WS6409 (29.68%)
  Link WS02006252WS02006251 (13.00%)
  Link WSF207WS02004410 (1.78%)
  Link WS02006280WS02006229 (1.04%)
  
  
  ********************************
  Highest Flow Instability Indexes
  ********************************
  Link WS02003201WS02003202 (64)
  Link WS02003200WS02003201 (61)
  Link WS02003215WS02003116 (57)
  Link WS02003115WS02003215 (55)
  Link WS02006238WS02006235 (55)
  
  
  *************************
  Routing Time Step Summary
  *************************
  Minimum Time Step           :     0.50 sec
  Average Time Step           :     1.03 sec
  Maximum Time Step           :    30.00 sec
  Percent in Steady State     :     0.00
  Average Iterations per Step :     5.94
  Percent Not Converging      :    41.56
  
  
  ***************************
  Subcatchment Runoff Summary
  ***************************
  
  ------------------------------------------------------------------------------------------------------------------------------
                            Total      Total      Total      Total     Imperv       Perv      Total       Total     Peak  Runoff
                           Precip      Runon       Evap      Infil     Runoff     Runoff     Runoff      Runoff   Runoff   Coeff
  Subcatchment                 mm         mm         mm         mm         mm         mm         mm    10^6 ltr      LPS
  ------------------------------------------------------------------------------------------------------------------------------
  sub0                      74.07       0.00       0.00       0.74      67.57       4.40      71.98        0.06    54.91   0.972
  sub1                      74.07       0.00       0.00       1.17      64.26       6.74      71.00        0.47   366.38   0.959
  sub2                      74.07       0.00       0.00       3.93      45.34      20.25      65.58        0.61   367.50   0.885
  sub3                      74.07       0.00       0.00       3.93      45.04      19.09      64.14        1.44   786.54   0.866
  sub4                      74.07       0.00       0.00       1.17      63.08       6.51      69.59        1.45   867.69   0.940
  sub5                      74.07       0.00       0.00       0.74      67.15       4.34      71.49        0.81   631.89   0.965
  sub6                      74.07       0.00       0.00       0.74      66.88       4.31      71.19        1.84  1333.56   0.961
  sub7                      74.07       0.00       0.00       0.96      65.96       5.60      71.56        0.24   207.72   0.966
  sub8                      74.07       0.00       0.00       0.96      65.88       5.58      71.46        0.46   377.96   0.965
  sub9                      74.07       0.00       0.00       0.96      65.86       5.57      71.43        0.34   281.85   0.964
  sub10                     74.07       0.00       0.00       0.85      66.49       4.95      71.44        0.79   624.90   0.964
  sub11                     74.07       0.00       0.00       0.85      66.63       4.98      71.61        0.83   698.70   0.967
  sub12                     74.07       0.00       0.00       1.38      63.16       8.08      71.24        0.62   566.28   0.962
  sub13                     74.07       0.00       0.00       3.61      47.79      19.96      67.75        0.80   581.74   0.915
  sub14                     74.07       0.00       0.00       0.96      65.84       5.57      71.41        0.68   553.50   0.964
  sub15                     74.07       0.00       0.00       3.19      50.62      17.62      68.25        1.17   845.51   0.921
  sub16                     74.07       0.00       0.00       3.50      48.61      19.80      68.41        0.72   570.44   0.924
  sub17                     74.07       0.00       0.00       3.40      49.32      19.16      68.48        0.59   462.46   0.925
  sub18                     74.07       0.00       0.00       0.96      66.01       5.61      71.62        0.57   504.11   0.967
  sub19                     74.07       0.00       0.00       3.29      50.03      18.53      68.56        0.22   169.58   0.926
  sub20                     74.07       0.00       0.00       0.96      65.95       5.60      71.55        0.50   428.58   0.966
  sub21                     74.07       0.00       0.00       1.27      63.85       7.45      71.30        0.36   322.59   0.963
  sub22                     74.07       0.00       0.00       4.57      41.29      24.69      65.99        4.17  2793.62   0.891
  sub23                     74.07       0.00       0.00       3.93      45.65      21.72      67.38        3.21  2322.79   0.910
  sub24                     74.07       0.00       0.00       1.49      62.38       8.66      71.04        2.55  2233.01   0.959
  sub25                     74.07       0.00       0.00       0.74      67.60       4.41      72.01        0.93   892.41   0.972
  sub26                     74.07       0.00       0.00       2.55      55.26      14.92      70.19        1.00   964.26   0.948
  sub27                     74.07       0.00       0.00       0.96      65.82       5.57      71.38        1.03   831.12   0.964
  sub28                     74.07       0.00       0.00       0.85      66.52       4.96      71.48        1.12   897.91   0.965
  sub29                     74.07       0.00       0.00       0.85      66.08       4.90      70.98        1.14   810.85   0.958
  sub30                     74.07       0.00       0.00       0.85      66.80       5.01      71.81        1.62  1480.32   0.969
  sub31                     74.07       0.00       0.00       1.81      60.29      10.55      70.85        1.50  1391.71   0.957
  sub32                     74.07       0.00       0.00       0.85      66.69       4.99      71.68        1.43  1237.06   0.968
  sub33                     74.07       0.00       0.00       1.38      63.17       8.09      71.26        1.30  1195.28   0.962
  sub34                     74.07       0.00       0.00       5.31      36.34      29.92      66.27        1.48  1142.39   0.895
  sub35                     74.07       0.00       0.00       0.85      66.94       5.07      72.01        0.25   266.00   0.972
  sub36                     74.07       0.00       0.00       2.34      56.70      13.65      70.35        0.61   577.42   0.950
  sub37                     74.07       0.00       0.00       4.14      44.36      23.92      68.28        0.52   468.97   0.922
  sub38                     74.07       0.00       0.00       3.72      47.28      21.64      68.92        1.31  1238.43   0.930
  sub39                     74.07       0.00       0.00       0.85      66.89       5.04      71.93        0.77   754.91   0.971
  sub40                     74.07       0.00       0.00       0.85      66.90       5.05      71.94        0.84   832.98   0.971
  sub41                     74.07       0.00       0.00       1.70      61.05       9.97      71.02        1.37  1292.27   0.959
  sub42                     74.07       0.00       0.00       0.96      66.16       5.66      71.82        0.72   704.33   0.970
  sub43                     74.07       0.00       0.00       4.04      45.02      22.81      67.83        0.55   442.56   0.916
  sub44                     74.07       0.00       0.00       0.74      67.27       4.35      71.62        0.81   655.31   0.967
  sub45                     74.07       0.00       0.00       1.81      60.12      10.39      70.51        1.29  1062.43   0.952
  sub46                     74.07       0.00       0.00       6.69      26.90      37.02      63.92        0.45   296.43   0.863
  sub47                     74.07       0.00       0.00       0.85      66.71       4.99      71.70        0.55   477.75   0.968
  sub48                     74.07       0.00       0.00       0.96      65.96       5.60      71.56        0.55   471.35   0.966
  sub49                     74.07       0.00       0.00       0.85      66.60       4.97      71.57        0.65   540.79   0.966
  sub50                     74.07       0.00       0.00       0.85      66.61       4.97      71.59        0.50   418.12   0.967
  sub51                     74.07       0.00       0.00       0.85      66.74       5.00      71.74        0.34   300.92   0.969
  sub52                     74.07       0.00       0.00       0.74      67.30       4.36      71.65        0.78   636.46   0.967
  sub53                     74.07       0.00       0.00       0.85      66.69       4.99      71.68        0.72   628.08   0.968
  sub54                     74.07       0.00       0.00       0.74      67.13       4.33      71.46        0.43   330.68   0.965
  sub55                     74.07       0.00       0.00       0.85      66.50       4.95      71.46        0.57   454.68   0.965
  sub56                     74.07       0.00       0.00       2.02      58.25      11.23      69.47        0.99   677.46   0.938
  sub57                     74.07       0.00       0.00       3.29      49.86      18.04      67.90        0.44   306.47   0.917
  sub58                     74.07       0.00       0.00       7.75      19.61      38.46      58.07        2.15   997.74   0.784
  sub59                     74.07       0.00       0.00       8.18      16.69      36.62      53.31        1.22   488.37   0.720
  sub60                     74.07       0.00       0.00       1.27      63.77       7.41      71.18        0.94   792.70   0.961
  sub61                     74.07       0.00       0.00       1.81      60.17      10.43      70.60        1.30  1098.43   0.953
  sub62                     74.07       0.00       0.00       0.85      66.44       4.94      71.39        1.96  1531.87   0.964
  sub67                     74.07       0.00       0.00       0.85      66.51       4.95      71.46        1.33  1061.00   0.965
  sub68                     74.07       0.00       0.00       1.49      62.23       8.57      70.80        1.95  1568.61   0.956
  sub71                     74.07       0.00       0.00       0.85      66.14       4.90      71.04        1.86  1337.05   0.959
  sub72                     74.07       0.00       0.00       0.74      66.42       4.27      70.69        0.97   640.17   0.954
  sub73                     74.07       0.00       0.00       2.23      57.42      13.04      70.47        0.07    65.36   0.951
  sub74                     74.07       0.00       0.00       3.40      49.43      19.62      69.04        0.11   100.02   0.932
  sub75                     74.07       0.00       0.00       3.19      50.89      18.50      69.39        0.15   142.32   0.937
  sub76                     74.07       0.00       0.00       1.91      59.58      11.18      70.76        0.17   161.58   0.955
  sub77                     74.07       0.00       0.00       1.81      60.33      10.60      70.93        0.11   107.43   0.958
  sub78                     74.07       0.00       0.00       1.38      63.16       8.08      71.24        0.20   177.62   0.962
  sub79                     74.07       0.00       0.00       2.55      55.16      14.66      69.82        0.18   155.67   0.943
  sub80                     74.07       0.00       0.00       3.50      48.69      20.15      68.84        0.20   177.63   0.929
  sub81                     74.07       0.00       0.00       3.93      45.76      22.33      68.09        0.21   171.87   0.919
  sub82                     74.07       0.00       0.00       3.93      45.78      22.45      68.23        0.21   174.68   0.921
  sub83                     74.07       0.00       0.00       4.04      45.07      23.14      68.21        0.23   199.50   0.921
  sub84                     74.07       0.00       0.00       3.72      47.19      21.05      68.24        0.37   299.99   0.921
  sub85                     74.07       0.00       0.00       2.55      55.15      14.63      69.78        0.31   264.39   0.942
  sub86                     74.07       0.00       0.00       2.76      53.72      15.85      69.57        0.34   288.33   0.939
  sub87                     74.07       0.00       0.00       3.72      47.23      21.25      68.48        0.21   175.39   0.925
  sub88                     74.07       0.00       0.00       3.61      47.96      20.71      68.67        0.21   181.90   0.927
  sub89                     74.07       0.00       0.00       3.29      50.16      19.08      69.24        0.18   169.28   0.935
  sub90                     74.07       0.00       0.00       2.87      53.05      16.62      69.67        0.17   156.83   0.941
  sub91                     74.07       0.00       0.00       2.87      53.09      16.77      69.86        0.13   122.31   0.943
  sub92                     74.07       0.00       0.00       3.29      50.20      19.30      69.50        0.10   104.36   0.938
  sub93                     74.07       0.00       0.00       3.29      50.20      19.32      69.52        0.13   127.28   0.939
  sub94                     74.07       0.00       0.00       3.29      50.18      19.19      69.37        0.15   143.12   0.937
  sub95                     74.07       0.00       0.00       3.08      51.64      18.02      69.66        0.11   102.85   0.941
  sub96                     74.07       0.00       0.00       2.34      56.76      13.82      70.58        0.13   137.83   0.953
  sub97                     74.07       0.00       0.00       6.48      28.39      37.90      66.30        0.15   151.18   0.895
  sub98                     74.07       0.00       0.00       7.65      20.38      43.21      63.59        0.21   145.96   0.859
  sub99                     74.07       0.00       0.00       8.39      15.28      45.60      60.88        0.21   114.57   0.822
  sub100                    74.07       0.00       0.00       8.39      15.27      44.00      59.27        0.21    98.06   0.800
  sub101                    74.07       0.00       0.00       8.39      15.27      43.82      59.09        0.20    93.17   0.798
  sub102                    74.07       0.00       0.00       8.07      17.44      40.90      58.34        0.18    80.37   0.788
  sub103                    74.07       0.00       0.00       8.28      15.99      41.20      57.18        0.27   117.56   0.772
  sub104                    74.07       0.00       0.00       8.28      15.99      40.82      56.80        0.30   127.20   0.767
  sub105                    74.07       0.00       0.00       8.60      13.81      42.34      56.15        0.32   129.83   0.758
  sub106                    74.07       0.00       0.00       8.39      15.27      42.79      58.06        0.30   131.77   0.784
  sub107                    74.07       0.00       0.00       8.60      13.82      45.12      58.94        0.42   192.34   0.796
  sub108                    74.07       0.00       0.00       8.71      13.10      47.53      60.63        0.56   301.16   0.819
  sub109                    74.07       0.00       0.00       6.80      26.18      37.73      63.91        0.91   608.64   0.863
  sub110                    74.07       0.00       0.00       1.91      59.52      11.10      70.62        1.48  1317.94   0.953
  sub111                    74.07       0.00       0.00       2.76      53.73      15.89      69.62        0.60   521.41   0.940
  sub112                    74.07       0.00       0.00       2.23      57.37      12.93      70.30        0.55   498.04   0.949
  sub113                    74.07       0.00       0.00       1.49      62.44       8.70      71.14        0.49   447.85   0.960
  sub114                    74.07       0.00       0.00       1.38      63.17       8.09      71.26        0.47   431.76   0.962
  sub115                    74.07       0.00       0.00       1.27      63.88       7.47      71.35        0.53   477.30   0.963
  sub116                    74.07       0.00       0.00       4.25      43.56      23.85      67.41        0.13    96.90   0.910
  sub117                    74.07       0.00       0.00       4.35      42.86      24.61      67.47        0.31   247.09   0.911
  
  
  ******************
  Node Depth Summary
  ******************
  
  ---------------------------------------------------------------------------------
                                 Average  Maximum  Maximum  Time of Max    Reported
                                   Depth    Depth      HGL   Occurrence   Max Depth
  Node                 Type       Meters   Meters   Meters  days hr:min      Meters
  ---------------------------------------------------------------------------------
  WS02001211           JUNCTION     0.96     4.02     8.86     0  00:26        1.79
  WS02001212           JUNCTION     0.72     3.45     8.52     0  00:26        1.55
  WS02001213           JUNCTION     0.97     3.61     8.37     0  00:26        1.86
  WS02003069           JUNCTION     0.91     2.52     7.11     0  00:25        1.74
  WS02003072           JUNCTION     0.99     1.66     6.03     0  00:26        1.58
  WS02003073           JUNCTION     1.20     1.70     5.77     0  00:30        1.70
  WS02003076           JUNCTION     0.94     1.35     5.58     0  00:30        1.35
  WS02003060           JUNCTION     0.81     2.00     6.93     0  00:26        1.67
  WS02003066           JUNCTION     0.50     1.18     6.73     0  00:30        1.15
  WS02003059           JUNCTION     1.04     2.84     7.53     0  00:26        1.92
  WS02003115           JUNCTION     1.64     2.76     9.62     0  00:13        2.72
  WS02003116           JUNCTION     1.78     3.03     9.74     0  00:13        2.93
  WS02003118           JUNCTION     1.77     2.90     9.52     0  00:13        2.90
  WS02003215           JUNCTION     1.66     2.80     9.66     0  00:16        2.80
  WS02003110           JUNCTION     1.31     2.54     9.79     0  00:14        2.35
  WS02003111           JUNCTION     1.41     2.35     9.44     0  00:13        2.35
  WS02005155           JUNCTION     1.30     2.66     9.97     0  00:15        2.46
  WS02005154           JUNCTION     1.09     2.67    10.30     0  00:14        2.35
  WS02005193           JUNCTION     1.34     3.22    11.04     0  00:17        3.00
  WS02005196           JUNCTION     1.31     3.31    11.16     0  00:22        2.97
  WS02003067           JUNCTION     0.85     1.49     6.81     0  00:30        1.46
  WS02004401           JUNCTION     1.42     2.66     8.66     0  00:17        2.45
  WS02004402           JUNCTION     1.42     2.74     8.70     0  00:19        2.46
  WS02004403           JUNCTION     1.41     2.77     8.70     0  00:19        2.46
  WS02004404           JUNCTION     1.46     2.79     8.64     0  00:19        2.52
  WS02004406           JUNCTION     1.42     3.45     9.28     0  00:17        2.49
  WS02004409           JUNCTION     1.17     2.74     8.51     0  00:19        2.29
  WS02004410           JUNCTION     1.09     2.96     8.68     0  00:19        2.08
  WS02004411           JUNCTION     1.01     2.42     8.10     0  00:19        1.85
  WS02004412           JUNCTION     0.93     2.22     7.86     0  00:19        1.62
  WS02004413           JUNCTION     0.98     2.56     8.03     0  00:19        1.53
  WS02004405           JUNCTION     1.45     2.72     8.57     0  00:19        2.50
  WS02006109           JUNCTION     1.76     2.64     9.26     0  00:17        2.64
  WS02006110           JUNCTION     1.61     2.76     9.34     0  00:17        2.48
  WS02006111           JUNCTION     1.04     2.68     9.39     0  00:17        1.99
  WS02006112           JUNCTION     1.68     2.68     8.56     0  00:00        2.68
  WS02006113           JUNCTION     1.12     2.73     9.62     0  00:17        1.99
  WS02006115           JUNCTION     1.37     3.26     9.40     0  00:17        2.38
  WS02006116           JUNCTION     1.42     3.35     9.39     0  00:17        2.44
  WS02006230           JUNCTION     1.79     2.65     9.39     0  00:15        2.65
  WS02006231           JUNCTION     1.39     2.24     9.36     0  00:15        2.19
  WS02006232           JUNCTION     1.44     2.18     9.22     0  00:16        2.18
  WS02006234           JUNCTION     1.28     1.96     9.12     0  00:16        1.96
  WS02006235           JUNCTION     1.27     2.00     9.16     0  00:16        1.93
  WS02006238           JUNCTION     1.28     2.15     9.29     0  00:16        1.93
  WS02006240           JUNCTION     1.09     2.10     9.39     0  00:16        1.62
  WS02006242           JUNCTION     1.08     1.55     8.82     0  00:16        1.55
  WS02006243           JUNCTION     0.93     1.48     8.90     0  00:16        1.36
  WS02006245           JUNCTION     0.87     1.56     9.04     0  00:16        1.26
  WS02006247           JUNCTION     0.86     1.47     8.97     0  00:16        1.23
  WS02006248           JUNCTION     0.77     1.10     8.69     0  00:17        1.10
  WS02006249           JUNCTION     0.78     1.09     8.69     0  00:17        1.09
  WS02006239           JUNCTION     1.19     2.03     9.24     0  00:16        1.78
  WS02006251           JUNCTION     1.22     2.21     9.88     0  00:22        2.17
  WS02006252           JUNCTION     0.82     1.50     9.74     0  00:17        1.50
  WS02006253           JUNCTION     1.51     3.52    11.16     0  00:17        3.18
  WS02006256           JUNCTION     1.69     2.35     9.28     0  00:13        2.35
  WS02004138           JUNCTION     0.12     0.14     7.39     0  00:33        0.14
  WS02004139           JUNCTION     0.89     3.88     8.79     0  00:26        1.72
  WS02004407           JUNCTION     0.82     3.03     9.34     0  00:19        1.94
  WS02006228           JUNCTION     1.95     3.03     9.68     0  00:17        3.02
  WS02006229           JUNCTION     2.04     3.25     9.94     0  00:17        3.21
  WS02006280           JUNCTION     0.89     1.82    10.09     0  00:17        1.74
  WS02006284           JUNCTION     1.12     1.95    10.35     0  00:25        1.94
  WS02006287           JUNCTION     0.87     1.75    10.70     0  00:24        1.73
  WS02003091           JUNCTION     2.41     3.99     9.78     0  00:14        3.91
  WS02003203           JUNCTION     2.35     3.83     9.82     0  00:00        3.83
  WS6145               JUNCTION     0.51     2.32    10.42     0  00:25        2.29
  WS6147               JUNCTION     0.43     2.25    10.52     0  00:25        2.16
  WS6150               JUNCTION     0.42     2.23    10.56     0  00:25        2.11
  WS6152               JUNCTION     0.43     2.20    10.54     0  00:25        2.14
  WS6155               JUNCTION     0.39     2.10    10.50     0  00:25        2.09
  WS6156               JUNCTION     0.37     2.05    10.52     0  00:25        2.05
  WS6136               JUNCTION     0.42     1.90    10.85     0  00:25        1.90
  WS6140               JUNCTION     0.56     2.45    10.38     0  00:26        2.44
  WS6142               JUNCTION     0.51     2.33    10.40     0  00:26        2.31
  WS6325               JUNCTION     0.73     2.74    10.39     0  00:30        2.72
  WS6327               JUNCTION     0.63     2.58    10.40     0  00:30        2.56
  WS6329               JUNCTION     0.60     2.52    10.40     0  00:33        2.48
  WS6332               JUNCTION     0.52     2.53    10.56     0  00:23        2.43
  WS6158               JUNCTION     0.34     2.05    10.59     0  00:25        1.97
  WS6335               JUNCTION     0.51     2.60    10.67     0  00:23        2.54
  WS6338               JUNCTION     0.45     2.55    10.75     0  00:23        2.54
  WS6340               JUNCTION     0.40     2.50    10.84     0  00:23        2.50
  WS6342               JUNCTION     0.32     2.50    11.10     0  00:23        2.43
  WS6135               JUNCTION     0.88     2.89    10.38     0  00:34        2.87
  WS6396               JUNCTION     0.56     2.01     9.57     0  00:30        2.00
  WS6399               JUNCTION     0.35     1.36     8.79     0  00:30        1.35
  WS02003082           JUNCTION     1.23     2.15     7.23     0  00:12        1.92
  WS02003077           JUNCTION     0.44     0.84     5.84     0  00:31        0.84
  WS02003080           JUNCTION     0.85     2.40     7.34     0  00:12        1.29
  WS02003083           JUNCTION     1.56     2.85     7.89     0  00:11        2.39
  WS02003084           JUNCTION     1.67     2.89     7.99     0  00:14        2.59
  WS02003085           JUNCTION     1.73     3.02     8.20     0  00:14        2.71
  WS02003086           JUNCTION     1.94     3.28     8.48     0  00:14        3.02
  WS02003087           JUNCTION     2.17     3.57     8.78     0  00:14        3.34
  WS02003088           JUNCTION     2.32     4.14     9.43     0  00:00        3.59
  WS02003089           JUNCTION     2.40     4.09     9.55     0  00:00        3.79
  WS02003090           JUNCTION     2.59     4.20     9.63     0  00:14        4.04
  WS02003081           JUNCTION     1.02     2.19     7.23     0  00:12        1.60
  WS02003122           JUNCTION     1.96     3.30     9.67     0  00:12        3.10
  WS02003187           JUNCTION     1.99     3.11     9.44     0  00:12        3.11
  WS02003188           JUNCTION     1.97     2.97     9.23     0  00:12        2.96
  WS02003190           JUNCTION     1.96     2.84     9.04     0  00:12        2.84
  WS02003193           JUNCTION     1.93     2.85     9.09     0  00:12        2.85
  WS02003195           JUNCTION     1.94     2.93     9.18     0  00:12        2.93
  WS02003196           JUNCTION     2.04     3.31     9.49     0  00:12        3.12
  WS02003198           JUNCTION     2.06     3.88    10.06     0  00:12        3.20
  WS02003200           JUNCTION     1.79     3.03     9.47     0  00:12        2.93
  WS02003201           JUNCTION     2.04     3.22     9.36     0  00:12        3.22
  WS02003202           JUNCTION     2.18     4.17    10.23     0  00:00        3.48
  WS02004041           JUNCTION     0.61     0.98     5.34     0  00:31        0.98
  WSA6400              JUNCTION     1.08     2.42     8.26     0  00:30        2.40
  WS6400               JUNCTION     0.51     1.68     8.34     0  00:30        1.67
  WSF208               JUNCTION     0.77     2.15     8.24     0  00:19        1.92
  WSF207               JUNCTION     0.65     2.16     8.29     0  00:19        1.66
  WSF206               JUNCTION     0.71     2.13     8.06     0  00:19        1.72
  WSF205               JUNCTION     0.65     1.80     7.70     0  00:19        1.58
  WSF204               JUNCTION     1.22     2.37     7.52     0  00:19        2.15
  WSF203               JUNCTION     0.60     1.51     7.21     0  00:20        1.34
  WSF202               JUNCTION     0.51     1.20     6.93     0  00:30        1.18
  WSF201               JUNCTION     0.44     1.05     6.78     0  00:30        1.03
  WSF200               JUNCTION     0.62     1.77     7.00     0  00:26        1.45
  HS02004901           JUNCTION     0.73     1.42    11.24     0  00:20        1.42
  HS02004881           JUNCTION     0.61     2.15    11.18     0  00:22        1.90
  HS02004876           JUNCTION     0.74     2.17    11.20     0  00:26        2.15
  HS02004870           JUNCTION     0.64     2.10    11.39     0  00:22        2.04
  HS02004862           JUNCTION     0.65     2.00    11.38     0  00:22        2.00
  HS02004856           JUNCTION     0.68     2.07    11.50     0  00:22        2.03
  HS02004852           JUNCTION     0.63     2.05    11.56     0  00:22        1.98
  HS02004848           JUNCTION     0.60     2.01    11.61     0  00:22        1.91
  HS02004842           JUNCTION     0.92     2.22    11.49     0  00:22        2.22
  HS02004837           JUNCTION     0.63     2.04    11.62     0  00:21        1.91
  HS02004830           JUNCTION     0.69     2.03    11.50     0  00:21        1.99
  HS02004824           JUNCTION     0.72     2.01    11.41     0  00:25        2.01
  HS02004817           JUNCTION     1.20     2.42    11.26     0  00:21        2.41
  HS02004807           JUNCTION     0.86     1.92    11.09     0  00:21        1.92
  HS02004802           JUNCTION     0.87     1.80    10.93     0  00:24        1.80
  HS02004799           JUNCTION     0.94     1.76    10.97     0  00:21        1.76
  HS02004792           JUNCTION     0.77     1.60    11.12     0  00:20        1.60
  HS02004788           JUNCTION     0.60     1.42    11.32     0  00:20        1.38
  HS02004785           JUNCTION     0.63     1.49    11.39     0  00:20        1.36
  HS02004777           JUNCTION     0.75     1.48    11.28     0  00:20        1.46
  HS02004770           JUNCTION     0.73     1.42    11.25     0  00:20        1.42
  HS02004480           JUNCTION     0.84     1.66    10.90     0  00:22        1.63
  HS02004479           JUNCTION     0.88     1.69    10.89     0  00:22        1.66
  HS02004478           JUNCTION     0.74     1.59    10.82     0  00:24        1.58
  HS02004053           JUNCTION     0.29     1.90    10.67     0  00:24        1.08
  HS02004052           JUNCTION     0.36     1.50    11.15     0  00:23        1.38
  HS02004049           JUNCTION     0.22     0.89    11.58     0  00:24        0.85
  HS02004048           JUNCTION     0.50     1.70    12.60     0  00:23        1.70
  HS02004046           JUNCTION     0.48     1.80    13.52     0  00:25        1.80
  HS02004043           JUNCTION     0.28     2.24    14.93     0  00:26        2.06
  HS02004041           JUNCTION     0.15     1.99    17.43     0  00:26        0.86
  HS02004038           JUNCTION     0.12     0.40    19.09     0  00:27        0.38
  HS02004036           JUNCTION     0.00     0.00    22.46     0  00:00        0.00
  HS02004034           JUNCTION     0.00     0.00    26.83     0  00:00        0.00
  HS02004028           JUNCTION     0.18     0.51    37.36     0  00:23        0.51
  HS02004027           JUNCTION     0.14     0.34    36.47     0  00:23        0.33
  HS02004026           JUNCTION     0.14     0.35    35.75     0  00:23        0.34
  HS02004024           JUNCTION     0.15     0.42    34.63     0  00:23        0.39
  HS02004022           JUNCTION     0.23     0.80    33.84     0  00:22        0.80
  HS02004021           JUNCTION     0.27     0.81    32.54     0  00:21        0.81
  HS02004019           JUNCTION     0.32     0.80    31.76     0  00:19        0.80
  HS02004018           JUNCTION     0.22     0.60    33.81     0  00:23        0.60
  HS02004017           JUNCTION     0.20     0.53    34.37     0  00:23        0.53
  HS02004013           JUNCTION     0.15     0.72    35.86     0  00:26        0.72
  HS02004010           JUNCTION     0.05     0.19    38.06     0  00:27        0.19
  HS02003174           JUNCTION     0.18     0.49     6.02     0  00:28        0.49
  HS02003171           JUNCTION     0.20     0.54     6.22     0  00:27        0.54
  HS02003170           JUNCTION     0.23     0.50     6.95     0  00:27        0.50
  HS02003168           JUNCTION     0.12     0.34     6.83     0  00:27        0.33
  HS02003166           JUNCTION     0.22     0.51     6.98     0  00:27        0.51
  HS02003162           JUNCTION     0.20     0.42    30.67     0  00:20        0.42
  HS02003160           JUNCTION     0.15     0.39    28.45     0  00:26        0.39
  HS02003150           JUNCTION     0.16     0.42    26.44     0  00:26        0.41
  HS02003148           JUNCTION     0.19     0.54    22.28     0  00:26        0.54
  HS02003145           JUNCTION     0.25     0.81    14.68     0  00:24        0.81
  HS02003143           JUNCTION     0.37     0.80    13.27     0  00:17        0.80
  HS02003138           JUNCTION     0.34     0.59     7.08     0  01:15        0.59
  HS02003136           JUNCTION     1.21     2.28    10.00     0  00:14        2.28
  HS02003125           JUNCTION     1.24     2.40     9.85     0  00:16        2.29
  HS02003122           JUNCTION     1.28     2.54     9.97     0  00:16        2.40
  HS02003119           JUNCTION     1.08     2.60    10.32     0  00:17        2.21
  HS02003116           JUNCTION     0.82     2.43    10.55     0  00:17        1.81
  HS02003111           JUNCTION     0.48     0.99    10.00     0  00:27        0.92
  HS02003108           JUNCTION     0.39     1.20    10.31     0  00:20        0.87
  HS02003100           JUNCTION     0.28     1.23    10.46     0  00:26        0.80
  HS02003088           JUNCTION     0.23     1.30    10.60     0  00:26        0.81
  HS02003084           JUNCTION     0.12     1.52    10.96     0  00:26        0.68
  HS02003079           JUNCTION     0.08     1.35    10.87     0  00:26        0.60
  HS02003077           JUNCTION     0.03     0.61    10.34     0  00:26        0.36
  HS02003065           JUNCTION     0.68     1.80    11.04     0  00:16        1.65
  HS02003056           JUNCTION     0.71     1.90    10.84     0  00:16        1.76
  HS02003053           JUNCTION     0.53     1.66    10.96     0  00:16        1.65
  HS02003042           JUNCTION     0.38     1.69    11.35     0  00:17        1.43
  HS02003039           JUNCTION     0.41     1.80    11.45     0  00:23        1.51
  HS02003036           JUNCTION     0.23     1.41    11.47     0  00:23        1.28
  HS02003028           JUNCTION     0.34     1.40    11.14     0  00:22        1.40
  HS02003021           JUNCTION     0.37     1.55    10.92     0  00:22        1.49
  HS02003018           JUNCTION     0.38     1.48    10.69     0  00:22        1.48
  HS02003017           JUNCTION     0.39     1.48    10.64     0  00:22        1.48
  HS02003013           JUNCTION     0.38     1.47    10.52     0  00:22        1.41
  HS02003010           JUNCTION     0.39     1.45    10.25     0  00:22        1.29
  HS02003007           JUNCTION     0.34     1.32     9.93     0  00:22        1.08
  HS02003004           JUNCTION     0.40     1.07     9.39     0  00:19        0.98
  HS02003001           JUNCTION     0.11     0.31     8.61     0  00:27        0.31
  YS02001738           JUNCTION     0.00     0.00     8.89     0  00:00        0.00
  YS02001739           JUNCTION     0.00     0.00     8.37     0  00:00        0.00
  YS02001742           JUNCTION     0.00     0.00     8.49     0  00:00        0.00
  YS02001745           JUNCTION     0.14     0.50     8.02     0  00:28        0.50
  YS02001748           JUNCTION     0.18     1.00     8.08     0  00:27        0.87
  YS02001751           JUNCTION     0.20     2.20     9.08     0  00:27        1.04
  YS02001754           JUNCTION     0.25     2.20     8.81     0  00:26        1.27
  YS02001762           JUNCTION     0.45     2.15     8.55     0  00:25        2.04
  YS02001765           JUNCTION     0.43     2.10     8.55     0  00:25        2.10
  YS02001767           JUNCTION     0.45     2.03     8.52     0  00:25        2.03
  YS02001770           JUNCTION     0.51     1.95     8.44     0  00:25        1.95
  YS02001774           JUNCTION     0.58     2.01     8.43     0  00:26        1.97
  YS02001779           JUNCTION     0.34     1.68     8.37     0  00:25        1.68
  YS02001882           JUNCTION     0.78     1.83     8.55     0  00:22        1.66
  YS02001884           JUNCTION     0.87     1.91     8.53     0  00:22        1.77
  YS02001759           JUNCTION     0.44     2.21     8.57     0  00:26        2.19
  YS02001887           JUNCTION     0.95     1.91     8.45     0  00:22        1.84
  YS02001890           JUNCTION     0.97     1.81     8.32     0  00:22        1.81
  YS02001898           JUNCTION     0.74     1.77     8.51     0  00:22        1.56
  YS02001901           JUNCTION     0.85     1.87     8.48     0  00:22        1.67
  YS02001904           JUNCTION     0.83     1.82     8.45     0  00:22        1.63
  YS02001907           JUNCTION     1.15     1.96     8.25     0  00:22        1.96
  YS02001910           JUNCTION     0.98     2.04     8.55     0  00:22        2.01
  YS02001915           JUNCTION     0.82     2.00     8.72     0  00:22        2.00
  YS02001918           JUNCTION     0.57     1.81     8.88     0  00:23        1.75
  YS02001920           JUNCTION     0.66     2.14     9.15     0  00:22        1.86
  YS02001923           JUNCTION     0.48     2.03     9.29     0  00:24        1.66
  YS02001926           JUNCTION     0.47     1.90     9.35     0  00:23        1.52
  YS02001929           JUNCTION     0.33     1.78     9.47     0  00:24        1.32
  YS02001932           JUNCTION     0.24     1.77     9.57     0  00:24        1.23
  YS02001935           JUNCTION     0.18     1.75     9.68     0  00:24        1.10
  YS02001757           JUNCTION     0.42     2.10     8.36     0  00:26        1.59
  YS02001895           JUNCTION     0.73     1.75     8.50     0  00:22        1.56
  YS02005679           JUNCTION     0.00     0.00    10.24     0  00:00        0.00
  YS02005559           JUNCTION     0.10     0.20    10.15     0  00:28        0.20
  YS02005651           JUNCTION     0.06     0.19    10.96     0  00:27        0.18
  YS02005670           JUNCTION     0.07     0.21    10.67     0  00:27        0.21
  YS02005547           JUNCTION     0.05     0.15    10.69     0  00:26        0.15
  YS02005549           JUNCTION     0.07     0.23    11.14     0  00:26        0.23
  YS02005550           JUNCTION     0.09     0.28    10.91     0  00:27        0.28
  YS02005551           JUNCTION     0.05     0.14    10.51     0  00:27        0.14
  YS02005553           JUNCTION     0.12     0.27    10.63     0  00:28        0.27
  YS02005554           JUNCTION     0.06     0.13    10.37     0  00:28        0.13
  YS02005556           JUNCTION     0.12     0.26    10.31     0  00:33        0.26
  YS02005557           JUNCTION     0.07     0.14    10.10     0  00:28        0.13
  YS02005560           JUNCTION     0.07     0.15     9.89     0  00:28        0.15
  YS02005562           JUNCTION     0.12     0.24     9.97     0  00:30        0.23
  YS02005563           JUNCTION     0.07     0.13     9.80     0  00:28        0.13
  YS02005565           JUNCTION     0.10     0.20     9.91     0  00:28        0.20
  YS02005566           JUNCTION     0.09     0.17     9.56     0  00:28        0.17
  YS02005568           JUNCTION     0.13     0.27     9.78     0  00:28        0.27
  YS02005569           JUNCTION     0.10     0.19     9.52     0  00:28        0.19
  YS02005598           JUNCTION     0.24     1.07    10.91     0  00:22        1.07
  YS02005600           JUNCTION     0.22     1.02    10.68     0  00:22        1.02
  YS02005602           JUNCTION     0.50     2.15    10.43     0  00:23        2.15
  YS02005603           JUNCTION     0.15     0.94     9.07     0  00:23        0.58
  YS02005609           JUNCTION     0.08     0.22     9.11     0  00:27        0.22
  YS02005653           JUNCTION     0.12     0.87    11.84     0  00:27        0.79
  YS02005654           JUNCTION     0.13     0.74    11.49     0  00:25        0.60
  YS02005655           JUNCTION     0.05     0.15    10.78     0  00:27        0.14
  YS02005595           JUNCTION     0.35     1.36    11.04     0  00:21        1.36
  YS02005658           JUNCTION     0.10     0.51    11.42     0  00:25        0.39
  YS02005659           JUNCTION     0.05     0.15    10.81     0  00:27        0.15
  YS02005661           JUNCTION     0.13     0.64    11.34     0  00:27        0.60
  YS02005662           JUNCTION     0.05     0.14    10.76     0  00:27        0.13
  YS02005664           JUNCTION     0.13     0.58    11.16     0  00:26        0.54
  YS02005665           JUNCTION     0.04     0.12    10.69     0  00:27        0.12
  YS02005668           JUNCTION     0.05     0.14    10.31     0  00:27        0.14
  YS02005667           JUNCTION     0.28     0.87    10.89     0  00:27        0.84
  YS02005571           JUNCTION     0.15     0.38     9.86     0  00:26        0.35
  YS02005572           JUNCTION     0.11     0.21     9.57     0  00:28        0.21
  YS02005576           JUNCTION     0.11     0.23     9.99     0  00:28        0.23
  YS02005577           JUNCTION     0.10     0.21     9.69     0  00:28        0.20
  YS02005579           JUNCTION     0.28     1.12    10.74     0  00:26        1.12
  YS02005580           JUNCTION     0.17     0.91    10.44     0  00:26        0.68
  YS02005582           JUNCTION     0.31     0.86    10.94     0  00:25        0.86
  YS02005583           JUNCTION     0.16     0.78    10.78     0  00:25        0.41
  YS02005612           JUNCTION     0.44     1.59     9.72     0  00:26        1.59
  YS02005615           JUNCTION     0.05     0.15    11.64     0  00:26        0.15
  YS02005616           JUNCTION     0.04     0.12    10.94     0  00:26        0.12
  YS02005618           JUNCTION     0.07     0.24    11.10     0  00:26        0.24
  YS02005619           JUNCTION     0.04     0.14    10.69     0  00:26        0.14
  YS02005621           JUNCTION     0.08     0.28    11.39     0  00:26        0.28
  YS02005622           JUNCTION     0.04     0.11    11.08     0  00:26        0.11
  YS02005625           JUNCTION     0.03     0.10    11.12     0  00:26        0.10
  YS02005627           JUNCTION     0.10     0.45    11.38     0  00:25        0.39
  YS02005628           JUNCTION     0.04     0.11    11.01     0  00:26        0.11
  YS02005630           JUNCTION     0.09     0.46    11.53     0  00:25        0.37
  YS02005631           JUNCTION     0.04     0.13    11.00     0  00:27        0.13
  YS02005633           JUNCTION     0.08     0.46    11.59     0  00:26        0.31
  YS02005634           JUNCTION     0.05     0.14    10.98     0  00:27        0.14
  YS02005636           JUNCTION     0.10     0.58    11.57     0  00:25        0.47
  YS02005637           JUNCTION     0.05     0.16    10.92     0  00:27        0.16
  YS02005639           JUNCTION     0.09     0.44    11.07     0  00:26        0.35
  YS02005640           JUNCTION     0.05     0.16    10.49     0  00:27        0.16
  YS02005642           JUNCTION     0.07     0.22    11.05     0  00:27        0.22
  YS02005644           JUNCTION     0.15     0.87    11.98     0  00:25        0.87
  YS02005645           JUNCTION     0.07     0.22    11.03     0  00:26        0.22
  YS02005647           JUNCTION     0.23     1.03    11.92     0  00:25        1.03
  YS02005648           JUNCTION     0.08     0.23    11.02     0  00:25        0.23
  YS02005650           JUNCTION     0.14     0.73    11.62     0  00:27        0.70
  YS02005671           JUNCTION     0.03     0.10    10.33     0  00:27        0.10
  YS02005673           JUNCTION     0.07     0.23    10.58     0  00:27        0.23
  YS02005674           JUNCTION     0.05     0.14    10.04     0  00:27        0.14
  YS02005676           JUNCTION     0.00     0.00    10.24     0  00:00        0.00
  YS02005680           JUNCTION     0.05     0.14    10.24     0  00:27        0.14
  YS02005682           JUNCTION     0.00     0.00    10.06     0  00:00        0.00
  YS02005683           JUNCTION     0.03     0.09     9.98     0  00:27        0.08
  YS02005376           JUNCTION     0.62     1.01    11.10     0  00:08        1.01
  YS02005378           JUNCTION     1.08     1.62    11.14     0  00:10        1.62
  YS02005381           JUNCTION     0.99     1.57    11.20     0  00:07        1.57
  YS02005624           JUNCTION     0.21     0.50    11.38     0  00:26        0.50
  YS02005384           JUNCTION     0.33     1.21    10.87     0  00:10        0.53
  YS02005677           JUNCTION     0.05     0.16    10.24     0  00:27        0.16
  YSB1105              JUNCTION     0.28     0.55    10.03     0  00:25        0.53
  YSB1106              JUNCTION     0.26     1.93    11.76     0  00:25        0.76
  YSB1109              JUNCTION     0.33     1.84    11.78     0  00:25        1.08
  YSB1112              JUNCTION     0.34     1.76    11.90     0  00:25        1.30
  YSB1115              JUNCTION     0.32     1.90    12.20     0  00:25        1.29
  YSB1118              JUNCTION     0.35     1.80    12.34     0  00:25        1.44
  YSB1121              JUNCTION     0.42     1.70    12.37     0  00:25        1.70
  YSB1124              JUNCTION     0.29     1.60    12.43     0  00:25        1.54
  YSB1128              JUNCTION     0.50     1.85    12.43     0  00:20        1.50
  YSB1132              JUNCTION     0.56     1.90    12.35     0  00:20        1.62
  YSB1228              JUNCTION     0.05     0.17    11.01     0  00:26        0.16
  YSB1202              JUNCTION     0.83     1.50    12.39     0  00:18        1.46
  YSB1135              JUNCTION     0.66     1.97    12.23     0  00:20        1.81
  YSB1138              JUNCTION     0.75     1.90    12.07     0  00:20        1.90
  YSB1141              JUNCTION     0.78     2.00    11.83     0  00:20        1.85
  YSB1145              JUNCTION     0.78     2.00    11.69     0  00:20        1.84
  YSB1148              JUNCTION     0.83     2.00    11.50     0  00:20        1.88
  YSB1151              JUNCTION     0.99     2.09    11.32     0  00:20        2.00
  YSB1154              JUNCTION     1.13     2.10    11.16     0  00:20        2.10
  YSB1198              JUNCTION     0.24     1.60    12.39     0  00:21        1.60
  YSB1192              JUNCTION     0.46     1.90    12.17     0  00:21        1.84
  YSB6556              JUNCTION     0.96     1.80    10.97     0  00:20        1.80
  YSB1205              JUNCTION     1.01     1.65    12.35     0  00:18        1.65
  YSB1209              JUNCTION     1.01     1.65    12.22     0  00:18        1.65
  YSB1212              JUNCTION     0.92     1.60    12.13     0  00:18        1.60
  YSB1215              JUNCTION     0.94     1.70    12.05     0  00:18        1.69
  YSB1218              JUNCTION     0.96     1.75    11.94     0  00:24        1.75
  YSB1221              JUNCTION     0.91     1.62    11.59     0  00:18        1.58
  YSB1224              JUNCTION     0.82     1.33    11.18     0  00:36        1.33
  YSB1195              JUNCTION     0.41     1.90    12.28     0  00:21        1.87
  YSB1189              JUNCTION     0.54     1.80    11.96     0  00:21        1.80
  YSB1186              JUNCTION     0.60     1.94    11.81     0  00:21        1.83
  YSB1183              JUNCTION     0.72     2.05    11.64     0  00:21        1.95
  YSB1180              JUNCTION     0.73     1.95    11.46     0  00:21        1.88
  YSB1177              JUNCTION     0.97     2.05    11.24     0  00:21        2.03
  YSB1174              JUNCTION     1.02     1.95    11.06     0  00:21        1.95
  YSB1171              JUNCTION     1.18     1.95    10.85     0  00:20        1.95
  YS02006553           JUNCTION     1.15     2.04     8.33     0  00:22        1.98
  YS02006561           JUNCTION     0.41     1.30     7.96     0  00:22        0.92
  YS02006562           JUNCTION     0.92     1.97     8.48     0  00:22        1.78
  YS02006556           JUNCTION     1.12     2.11     8.42     0  00:22        1.98
  YS02006558           JUNCTION     1.16     2.19     8.46     0  00:22        2.04
  YS6132               JUNCTION     0.54     2.75    10.07     0  00:33        1.53
  YS6137               JUNCTION     0.31     2.27    10.06     0  00:30        1.43
  YS6189               JUNCTION     0.41     2.46    10.25     0  00:30        1.69
  YS6184               JUNCTION     0.41     2.60    10.49     0  00:30        1.88
  YS6179               JUNCTION     0.36     2.60    10.58     0  00:26        1.85
  YS6176               JUNCTION     0.27     2.40    10.60     0  00:25        1.67
  YS6171               JUNCTION     0.28     2.10    10.51     0  00:26        2.10
  YS6168               JUNCTION     0.29     2.00    10.51     0  00:26        1.72
  YS6164               JUNCTION     0.14     1.90    10.63     0  00:26        1.51
  YS6162               JUNCTION     0.21     2.10    10.75     0  00:26        1.58
  YS6187               JUNCTION     0.44     2.51    10.29     0  00:30        1.78
  YS6363               JUNCTION     0.34     2.82    10.61     0  00:30        1.29
  YS6360               JUNCTION     0.45     2.72    10.52     0  00:30        1.50
  YS6354               JUNCTION     0.45     2.60    10.75     0  00:26        1.90
  YS6351               JUNCTION     0.54     2.50    10.71     0  00:25        2.20
  YS6350               JUNCTION     0.60     2.50    10.72     0  00:25        2.39
  YS6348               JUNCTION     0.57     2.45    10.85     0  00:24        2.45
  YS6344               JUNCTION     0.43     2.36    10.95     0  00:34        2.26
  YS6375               JUNCTION     0.09     0.34     8.77     0  00:27        0.34
  YS6377               JUNCTION     0.14     0.41     8.77     0  00:27        0.40
  YS6381               JUNCTION     0.16     0.47     8.60     0  00:27        0.47
  YS6386               JUNCTION     0.19     0.55     8.53     0  00:27        0.55
  YS6390               JUNCTION     0.40     0.66     8.35     0  00:27        0.66
  YS6394               JUNCTION     0.10     0.27     8.19     0  00:27        0.27
  YS6404               JUNCTION     0.50     3.00    10.23     0  00:24        1.19
  YS6401               JUNCTION     0.16     0.42     7.63     0  00:30        0.40
  YS02004319           JUNCTION     0.34     1.18    20.80     0  00:19        1.18
  YS02004320           JUNCTION     0.00     0.00    22.64     0  00:38        0.00
  YS02004321           JUNCTION     0.00     0.00    26.80     0  00:38        0.00
  YS02004307           JUNCTION     0.15     0.50    11.03     0  00:30        0.50
  YS02004309           JUNCTION     0.80     1.55    13.07     0  00:10        1.55
  YS02004312           JUNCTION     0.52     1.48    14.91     0  00:15        1.48
  YS02004314           JUNCTION     0.39     1.28    16.99     0  00:19        1.28
  YS02004316           JUNCTION     0.40     1.36    19.13     0  00:19        1.36
  YS02001783           JUNCTION     0.61     1.54     7.68     0  00:22        1.25
  YS02001784           JUNCTION     0.59     1.38     7.45     0  00:22        1.12
  YS02001786           JUNCTION     0.47     1.12     7.15     0  00:22        0.88
  YS02001788           JUNCTION     0.34     0.62     6.60     0  00:31        0.62
  YS02001790           JUNCTION     0.39     0.72     6.36     0  00:33        0.70
  YS02001791           JUNCTION     0.24     0.44     5.91     0  00:29        0.43
  YS02001793           JUNCTION     0.12     0.28     5.11     0  00:40        0.25
  YS02003309           JUNCTION     0.54     1.21     9.77     0  00:13        1.04
  YS02003306           JUNCTION     0.61     1.16     9.60     0  00:13        1.16
  YS02003269           JUNCTION     0.12     0.17     7.76     0  00:21        0.17
  YS02003272           JUNCTION     0.33     1.63     9.36     0  00:13        0.58
  YS02003278           JUNCTION     0.66     1.40     9.32     0  00:13        1.21
  YS02003281           JUNCTION     0.72     1.39     9.47     0  00:13        1.39
  YS02003284           JUNCTION     0.79     1.40     9.41     0  00:13        1.40
  YS02003287           JUNCTION     0.72     1.27     9.34     0  00:13        1.27
  YS02003290           JUNCTION     0.60     1.17     9.45     0  00:13        1.10
  YS02003294           JUNCTION     0.74     1.24     9.42     0  00:13        1.24
  YS02003275           JUNCTION     0.50     1.40     9.31     0  00:13        0.91
  YS02003297           JUNCTION     0.72     1.22     9.43     0  00:13        1.22
  YS02003300           JUNCTION     0.66     1.15     9.42     0  00:13        1.15
  YS02003303           JUNCTION     0.65     1.14     9.46     0  00:13        1.14
  YSB1227              JUNCTION     0.01     0.11    11.01     0  00:26        0.11
  CaochengRainPumpOutfall1 OUTFALL      0.00     0.00     6.00     0  00:00        0.00
  JiankangRainPumpOutfall2 OUTFALL      0.00     0.00     6.00     0  00:00        0.00
  JiankangRainPumpOutfall1 OUTFALL      0.00     0.00     6.00     0  00:00        0.00
  CaochengRainPumpOutfall2 OUTFALL      0.00     0.00     6.00     0  00:00        0.00
  YS02005684           OUTFALL      0.03     0.08     8.49     0  00:27        0.08
  YS02005681           OUTFALL      0.05     0.14     9.36     0  00:27        0.14
  YS02005678           OUTFALL      0.05     0.16     8.69     0  00:27        0.15
  YS02005675           OUTFALL      0.05     0.14     8.68     0  00:27        0.14
  YS02005672           OUTFALL      0.03     0.10     8.44     0  00:27        0.10
  YS02005669           OUTFALL      0.05     0.14     8.86     0  00:27        0.14
  YS02005666           OUTFALL      0.04     0.12     8.80     0  00:27        0.12
  YS02005663           OUTFALL      0.05     0.14     8.87     0  00:27        0.13
  YS02005660           OUTFALL      0.05     0.15     8.96     0  00:27        0.15
  YS02005657           OUTFALL      0.00     0.00     8.74     0  00:00        0.00
  YS02005652           OUTFALL      0.06     0.19     8.81     0  00:27        0.18
  YS02005649           OUTFALL      0.08     0.23     8.93     0  00:25        0.23
  YS02005646           OUTFALL      0.07     0.22     8.22     0  00:26        0.22
  YS02005643           OUTFALL      0.07     0.22     8.78     0  00:27        0.22
  YS02005641           OUTFALL      0.05     0.16     8.85     0  00:27        0.15
  YS02005638           OUTFALL      0.05     0.16     8.82     0  00:27        0.16
  YS02005635           OUTFALL      0.05     0.14     8.80     0  00:27        0.14
  YS02005632           OUTFALL      0.04     0.13     8.69     0  00:27        0.13
  YS02005629           OUTFALL      0.04     0.11     8.59     0  00:26        0.11
  YS02005626           OUTFALL      0.03     0.10     8.62     0  00:26        0.10
  YS02005623           OUTFALL      0.03     0.11     8.59     0  00:26        0.11
  YS02005620           OUTFALL      0.04     0.14     8.93     0  00:26        0.14
  YS02005617           OUTFALL      0.04     0.12     8.96     0  00:26        0.12
  YSB1103              OUTFALL      0.28     0.60     8.60     0  00:25        0.60
  YSB1229              OUTFALL      0.05     0.16     8.96     0  00:26        0.16
  YS02005548           OUTFALL      0.05     0.15     9.15     0  00:26        0.15
  YS02005552           OUTFALL      0.05     0.14     8.77     0  00:27        0.14
  YS02005555           OUTFALL      0.06     0.13     8.86     0  00:28        0.13
  YS02005558           OUTFALL      0.07     0.13     8.84     0  00:28        0.13
  YS02005561           OUTFALL      0.07     0.15     8.83     0  00:28        0.15
  YS02005564           OUTFALL      0.07     0.13     8.61     0  00:28        0.13
  YS02005567           OUTFALL      0.09     0.17     8.70     0  00:28        0.17
  YS02005570           OUTFALL      0.10     0.19     8.91     0  00:28        0.19
  YS02005574           OUTFALL      0.11     0.21     9.05     0  00:28        0.21
  YS02005578           OUTFALL      0.10     0.21     8.98     0  00:28        0.20
  WS02005134           OUTFALL      0.00     0.00     8.74     0  00:00        0.00
  YS02005581           OUTFALL      0.13     0.30     9.10     0  00:26        0.30
  YS02005584           OUTFALL      0.14     0.30     9.26     0  00:24        0.30
  YS02005593           OUTFALL      0.20     0.28     9.00     0  00:36        0.28
  YS02005596           OUTFALL      0.14     0.30     8.84     0  00:21        0.30
  YS02005374           OUTFALL      0.12     0.30     8.54     0  00:22        0.30
  YS02005375           OUTFALL      0.12     0.30     8.69     0  00:22        0.30
  YS02005607           OUTFALL      0.11     0.30     7.53     0  00:22        0.30
  YS02005610           OUTFALL      0.08     0.22     8.84     0  00:27        0.22
  YS02005613           OUTFALL      0.13     0.30     8.58     0  00:24        0.30
  HS02003172           OUTFALL      0.18     0.49     5.94     0  00:28        0.49
  YS6395               OUTFALL      0.10     0.27     6.70     0  00:28        0.27
  YS6405               OUTFALL      0.16     0.41     3.86     0  00:27        0.39
  WSC                  OUTFALL      0.56     0.80     5.00     0  00:23        0.80
  JiankangQianchi      STORAGE      2.51     4.21     5.01     0  00:40        4.02
  CaochengTiaoxuchi    STORAGE      0.86     1.40     6.90     0  00:39        1.40
  XierchiQianchi       STORAGE      6.97     7.47     5.47     0  02:02        7.47
  
  
  *******************
  Node Inflow Summary
  *******************
  
  -------------------------------------------------------------------------------------------------
                                  Maximum  Maximum                  Lateral       Total        Flow
                                  Lateral    Total  Time of Max      Inflow      Inflow     Balance
                                   Inflow   Inflow   Occurrence      Volume      Volume       Error
  Node                 Type           LPS      LPS  days hr:min    10^6 ltr    10^6 ltr     Percent
  -------------------------------------------------------------------------------------------------
  WS02001211           JUNCTION      7.35   559.53     0  00:21      0.0539        1.31       2.619
  WS02001212           JUNCTION      0.00   551.13     0  00:21           0        1.33       1.096
  WS02001213           JUNCTION      0.00   616.78     0  00:20           0        1.37       1.564
  WS02003069           JUNCTION      0.32  2518.14     0  00:31     0.00235        9.33       0.277
  WS02003072           JUNCTION      0.00  2518.22     0  00:31           0        9.34       0.300
  WS02003073           JUNCTION      1.82  3086.25     0  00:31      0.0134        12.1       0.150
  WS02003076           JUNCTION      0.00  3086.21     0  00:31           0        12.1       0.190
  WS02003060           JUNCTION     16.53  2517.69     0  00:31       0.121        9.52       0.264
  WS02003066           JUNCTION      0.00  2447.59     0  00:28           0        8.13       0.043
  WS02003059           JUNCTION      0.00   723.01     0  00:20           0        1.44       2.645
  WS02003115           JUNCTION      0.07   477.10     0  00:41    2.28e-06        1.06      -0.025
  WS02003116           JUNCTION      0.26   426.01     0  00:13    9.64e-06       0.953       0.042
  WS02003118           JUNCTION      0.21   494.01     0  00:13    1.29e-05       0.957      -0.018
  WS02003215           JUNCTION      0.18  2507.13     0  00:27    2.77e-05        2.84      -0.060
  WS02003110           JUNCTION      0.18   478.01     0  00:27     0.00132       0.547      -0.103
  WS02003111           JUNCTION      1.55   956.32     0  00:27      0.0107        1.53      -0.039
  WS02005155           JUNCTION      0.38   477.79     0  00:27      0.0028       0.536      -0.046
  WS02005154           JUNCTION    477.30   477.30     0  00:27       0.525       0.527       0.192
  WS02005193           JUNCTION      0.00    59.59     0  00:08           0      0.0197      -0.454
  WS02005196           JUNCTION      0.00    42.69     0  00:17           0     0.00539      -0.645
  WS02003067           JUNCTION      0.00  1926.93     0  00:27           0         6.7       0.097
  WS02004401           JUNCTION      0.14  1123.03     0  00:19    4.23e-06        4.94       0.363
  WS02004402           JUNCTION      0.00  1123.03     0  00:19           0        4.95       0.343
  WS02004403           JUNCTION      0.00  1122.91     0  00:19           0        4.95       0.317
  WS02004404           JUNCTION      0.16  1123.64     0  00:19     0.00119        4.94       0.241
  WS02004406           JUNCTION      0.00  1125.42     0  00:19           0        4.95       0.605
  WS02004409           JUNCTION      0.14  1862.95     0  00:24    0.000111        6.94       0.185
  WS02004410           JUNCTION      0.00  1926.40     0  00:27           0        7.02       0.204
  WS02004411           JUNCTION      0.00  1926.40     0  00:27           0        6.76       0.225
  WS02004412           JUNCTION      0.00  1926.58     0  00:27           0        6.74       0.250
  WS02004413           JUNCTION      0.00  1926.75     0  00:27           0        6.73       0.387
  WS02004405           JUNCTION      0.19  1124.79     0  00:19    0.000535        4.95       0.362
  WS02006109           JUNCTION      1.94  1308.01     0  00:00      0.0098         5.7       0.293
  WS02006110           JUNCTION      0.34  1214.50     0  00:17     0.00027        4.97      -0.570
  WS02006111           JUNCTION      0.04  1236.92     0  00:17    7.96e-06        4.99      -0.712
  WS02006112           JUNCTION      0.48  2307.30     0  00:00     3.2e-05        5.02       0.136
  WS02006113           JUNCTION      0.03  1214.57     0  00:17    5.09e-06        4.96      -0.761
  WS02006115           JUNCTION      0.00  1366.56     0  00:00           0        4.93       0.231
  WS02006116           JUNCTION      0.36  1123.29     0  00:19    0.000651        4.94       0.169
  WS02006230           JUNCTION     10.46  1027.64     0  00:24      0.0754        3.42       0.196
  WS02006231           JUNCTION      0.54   453.52     0  00:25     0.00156        1.98       0.130
  WS02006232           JUNCTION      0.25   453.61     0  00:25     0.00014        1.97       0.282
  WS02006234           JUNCTION      0.32   453.46     0  00:25    1.66e-05        1.96       0.026
  WS02006235           JUNCTION      1.22   439.39     0  00:16     0.00218        1.88       0.167
  WS02006238           JUNCTION      1.52   598.82     0  00:16     0.00197         1.7      -0.075
  WS02006240           JUNCTION      0.00   582.89     0  00:16           0        1.69       0.112
  WS02006242           JUNCTION      1.82   554.15     0  00:16     0.00375         1.7       0.245
  WS02006243           JUNCTION      2.04   507.91     0  00:16     0.00451        1.26       0.070
  WS02006245           JUNCTION      2.28   390.49     0  00:16     0.00306        1.25       0.295
  WS02006247           JUNCTION      0.00   417.39     0  00:16           0        1.25       0.121
  WS02006248           JUNCTION      2.50   468.72     0  00:17     0.00452        1.48       0.031
  WS02006249           JUNCTION      0.12  1387.73     0  00:27    3.84e-06        4.51       0.081
  WS02006239           JUNCTION      1.40   488.70     0  00:16     0.00187         1.7       0.002
  WS02006251           JUNCTION      1.43  1743.69     0  00:27     0.00186        4.79       0.018
  WS02006252           JUNCTION      0.00   756.28     0  00:27           0        1.71      -0.045
  WS02006253           JUNCTION     54.91  1743.52     0  00:27      0.0584        3.97       0.048
  WS02006256           JUNCTION      0.00   300.00     0  00:20           0        1.26       0.026
  WS02004138           JUNCTION      0.00   190.00     0  00:29           0        1.17       0.247
  WS02004139           JUNCTION      0.32   589.65     0  00:22     0.00236        1.21       2.236
  WS02004407           JUNCTION      0.09  1862.94     0  00:24    0.000132        7.01       0.125
  WS02006228           JUNCTION      1.24  1289.18     0  00:24    0.000987        5.67       0.177
  WS02006229           JUNCTION      0.98  2306.93     0  00:24    0.000949        8.49       0.143
  WS02006280           JUNCTION      0.25  2306.37     0  00:24    0.000418        7.91      -0.009
  WS02006284           JUNCTION      0.18  2306.35     0  00:24    0.000743        7.92       0.052
  WS02006287           JUNCTION      0.20  2306.44     0  00:24    9.27e-05        7.92       0.062
  WS02003091           JUNCTION      0.50   919.07     0  00:00     0.00113         2.8      -1.639
  WS02003203           JUNCTION      0.31  2281.47     0  00:00    0.000116        4.58      -0.347
  WS6145               JUNCTION      0.30   229.57     0  00:24    0.000554      0.0901       0.396
  WS6147               JUNCTION      0.00   229.23     0  00:24           0      0.0789       0.241
  WS6150               JUNCTION      0.19   230.47     0  00:24    0.000593       0.068       0.488
  WS6152               JUNCTION      0.58   237.81     0  00:24     0.00423      0.0569       0.768
  WS6155               JUNCTION      0.01   233.20     0  00:24    4.02e-05       0.042       0.511
  WS6156               JUNCTION      0.68   237.04     0  00:24     0.00382      0.0308       0.445
  WS6136               JUNCTION      0.21   728.75     0  00:23    4.69e-05        1.29      -0.003
  WS6140               JUNCTION      0.21   230.38     0  00:24    0.000167       0.111       0.145
  WS6142               JUNCTION      0.23   230.07     0  00:24    0.000213       0.101       0.214
  WS6325               JUNCTION      0.22   134.44     0  00:23    0.000237      0.0917       0.132
  WS6327               JUNCTION      0.18   134.34     0  00:23    0.000536      0.0807       0.143
  WS6329               JUNCTION      0.54   134.49     0  00:23     0.00204      0.0691       0.224
  WS6332               JUNCTION      0.38   134.48     0  00:23    0.000933      0.0559       0.204
  WS6158               JUNCTION      1.75   235.94     0  00:25       0.012      0.0166      -0.696
  WS6335               JUNCTION      0.71   135.21     0  00:23     0.00379      0.0437       0.337
  WS6338               JUNCTION      0.43   135.69     0  00:23     0.00127      0.0285       0.102
  WS6340               JUNCTION      0.28   135.19     0  00:23     0.00028      0.0157       0.250
  WS6342               JUNCTION      0.64   142.40     0  00:23      0.0032     0.00625      -1.489
  WS6135               JUNCTION      0.12   728.74     0  00:23    2.99e-05        1.39       0.156
  WS6396               JUNCTION      0.00   558.48     0  00:26           0        1.29       0.048
  WS6399               JUNCTION      0.04   558.56     0  00:26     8.8e-05        1.29       0.016
  WS02003082           JUNCTION      0.50   590.54     0  00:25     0.00161        2.82       0.311
  WS02003077           JUNCTION      0.60   591.30     0  00:25      0.0044        2.81       0.161
  WS02003080           JUNCTION      0.00   590.63     0  00:25           0         2.8       0.109
  WS02003083           JUNCTION      0.00   590.33     0  00:25           0        2.82       0.112
  WS02003084           JUNCTION      0.04   590.43     0  00:25    0.000323        2.83       0.110
  WS02003085           JUNCTION      0.00   590.41     0  00:25           0        2.82       0.004
  WS02003086           JUNCTION      0.49   590.36     0  00:25      0.0036        2.83       0.161
  WS02003087           JUNCTION      0.00  1088.36     0  00:00           0        2.83       0.117
  WS02003088           JUNCTION      0.55  2146.84     0  00:00     0.00163        2.85       0.163
  WS02003089           JUNCTION      0.26  1591.00     0  00:00    0.000456        2.83      -0.648
  WS02003090           JUNCTION      0.43   852.01     0  00:00    0.000686         2.8      -1.017
  WS02003081           JUNCTION      0.16   590.53     0  00:25     5.9e-05        2.81       0.257
  WS02003122           JUNCTION      0.00   474.73     0  00:12           0       0.948       0.270
  WS02003187           JUNCTION    655.31   832.35     0  00:27       0.809        1.73       0.211
  WS02003188           JUNCTION      0.50   403.49     0  00:34     0.00105        1.46       0.318
  WS02003190           JUNCTION      0.55   608.65     0  00:35    0.000501        2.09       0.314
  WS02003193           JUNCTION   1062.43  1326.07     0  00:27        1.29        2.44       0.238
  WS02003195           JUNCTION      0.31   403.64     0  00:12    0.000476        1.21       0.411
  WS02003196           JUNCTION      0.00   338.84     0  00:12           0        1.22       0.509
  WS02003198           JUNCTION    296.43   438.95     0  00:00       0.447        1.27       0.706
  WS02003200           JUNCTION      4.23   304.96     0  00:12      0.0289       0.878      -2.397
  WS02003201           JUNCTION      0.22   553.89     0  00:28    9.78e-05        2.07      -0.761
  WS02003202           JUNCTION      0.04   709.01     0  00:00    7.73e-05        2.09       0.151
  WS02004041           JUNCTION      0.50  3084.91     0  00:31     0.00367          12       0.059
  WSA6400              JUNCTION      0.00   558.82     0  00:26           0        1.29       0.236
  WS6400               JUNCTION      0.07   558.59     0  00:26    0.000205        1.29       0.007
  WSF208               JUNCTION      0.00   558.87     0  00:26           0        1.29       0.101
  WSF207               JUNCTION      1.60   560.44     0  00:26      0.0117        1.55       0.022
  WSF206               JUNCTION      0.00   488.66     0  00:26           0        1.45       0.061
  WSF205               JUNCTION      0.00   488.61     0  00:26           0        1.45       0.265
  WSF204               JUNCTION      0.00   488.61     0  00:26           0        1.44       0.661
  WSF203               JUNCTION      0.00   488.57     0  00:26           0        1.43       0.251
  WSF202               JUNCTION      1.27   489.95     0  00:26     0.00932        1.44       0.141
  WSF201               JUNCTION      0.00   489.89     0  00:26           0        1.44       0.092
  WSF200               JUNCTION      0.00  2387.04     0  00:26           0        8.13       0.035
  HS02004901           JUNCTION      0.19   265.79     0  00:49    0.000161       0.519       0.508
  HS02004881           JUNCTION    207.72  1688.42     0  00:27       0.241        3.89      -0.001
  HS02004876           JUNCTION    366.38  1516.95     0  00:33       0.472        3.65       0.083
  HS02004870           JUNCTION    377.96  1433.08     0  00:22       0.457        3.18       0.027
  HS02004862           JUNCTION    367.70  1353.94     0  00:22       0.612        2.85       0.038
  HS02004856           JUNCTION    281.85  1257.28     0  00:22       0.344        2.24       0.099
  HS02004852           JUNCTION      0.00  1129.68     0  00:22           0        1.89       0.050
  HS02004848           JUNCTION    786.54  1144.81     0  00:21        1.44        2.12       0.037
  HS02004842           JUNCTION      0.13   922.62     0  00:21    4.01e-06        0.92       1.526
  HS02004837           JUNCTION    631.25   926.91     0  00:21       0.834        1.33       0.099
  HS02004830           JUNCTION      0.15   714.98     0  00:21      0.0011           1       0.216
  HS02004824           JUNCTION    867.74  1446.42     0  00:29        1.45        2.17       0.061
  HS02004817           JUNCTION      0.70  1196.77     0  00:34     0.00441        1.79       1.091
  HS02004807           JUNCTION    698.70  1893.64     0  00:27       0.832        2.55       0.253
  HS02004802           JUNCTION      0.07  1232.81     0  00:35    1.66e-05        2.14       0.275
  HS02004799           JUNCTION    553.50  1695.60     0  00:27        0.68        5.02       0.147
  HS02004792           JUNCTION   2793.90  3705.21     0  00:28        4.17         6.6       0.030
  HS02004788           JUNCTION    847.18   929.90     0  00:27        1.19        2.43       0.027
  HS02004785           JUNCTION      0.15   638.09     0  00:20      0.0011        1.25       0.199
  HS02004777           JUNCTION      0.35   639.79     0  00:20    0.000985        1.26       0.576
  HS02004770           JUNCTION   2322.79  2322.79     0  00:28        3.21        3.23       0.152
  HS02004480           JUNCTION      0.28  2229.19     0  00:21    0.000535        6.07       0.059
  HS02004479           JUNCTION      0.39   700.45     0  00:21     0.00088         1.5       0.117
  HS02004478           JUNCTION      0.17  2306.59     0  00:24    9.09e-05        7.96      -0.001
  HS02004053           JUNCTION      0.07  1049.03     0  00:24    1.43e-05        2.15      -0.037
  HS02004052           JUNCTION      0.27  1049.14     0  00:24    0.000113        2.15       0.016
  HS02004049           JUNCTION      0.48  1517.83     0  00:24     0.00191        2.64       0.006
  HS02004048           JUNCTION   1480.32  2753.52     0  00:27        1.62        3.12       0.007
  HS02004046           JUNCTION      0.93  1389.48     0  00:27     0.00587        1.52       0.083
  HS02004043           JUNCTION      1.50  1388.54     0  00:27       0.011        1.51      -0.003
  HS02004041           JUNCTION      0.11  1387.16     0  00:27    0.000566         1.5       0.005
  HS02004038           JUNCTION   1391.74  1391.74     0  00:27         1.5         1.5       0.009
  HS02004036           JUNCTION      0.00     0.00     0  00:00           0           0       0.000 ltr
  HS02004034           JUNCTION      0.00     0.00     0  00:00           0           0       0.000 ltr
  HS02004028           JUNCTION   1238.43  1238.43     0  00:26        1.31        1.31      -0.001
  HS02004027           JUNCTION      0.15   616.29     0  00:23    2.82e-05         1.1       0.002
  HS02004026           JUNCTION      0.10   616.82     0  00:23     1.8e-05         1.1       0.001
  HS02004024           JUNCTION      0.00   614.77     0  00:23           0         1.1       0.002
  HS02004022           JUNCTION    468.98  1069.13     0  00:27        0.52        1.62      -0.002
  HS02004021           JUNCTION      0.37   801.15     0  00:32     0.00167        1.52       0.001
  HS02004019           JUNCTION      0.11  1522.26     0  00:22    3.23e-06        3.25       0.002
  HS02004018           JUNCTION    266.00  1049.16     0  00:26        0.25        1.95      -0.003
  HS02004017           JUNCTION      0.08  1598.38     0  00:25    2.54e-06        2.06       0.002
  HS02004013           JUNCTION   1142.39  1719.54     0  00:27        1.48        2.09      -0.006
  HS02004010           JUNCTION    577.42   577.42     0  00:27       0.611       0.611       0.002
  HS02003174           JUNCTION      0.00  2775.11     0  00:28           0        4.61       0.036
  HS02003171           JUNCTION    330.86  2662.64     0  00:27       0.428        4.21       0.071
  HS02003170           JUNCTION      0.00  2329.86     0  00:28           0        3.78       0.056
  HS02003168           JUNCTION      0.00  2331.62     0  00:28           0        3.78       0.034
  HS02003166           JUNCTION    810.85  2327.78     0  00:28        1.14        3.78       0.023
  HS02003162           JUNCTION      0.17  1062.97     0  00:26    6.73e-05        2.77       0.004
  HS02003160           JUNCTION    754.91  1819.20     0  00:26       0.765        3.54       0.003
  HS02003150           JUNCTION      0.18  1816.62     0  00:26    0.000257        3.54       0.002
  HS02003148           JUNCTION    832.98  2644.31     0  00:26       0.837        4.37       0.004
  HS02003145           JUNCTION   1195.28  3814.29     0  00:27         1.3        5.68       0.002
  HS02003143           JUNCTION      0.29  2650.62     0  00:23     0.00132        5.28       0.025
  HS02003138           JUNCTION      0.36     0.36     0  00:38    0.000673    0.000673       0.000
  HS02003136           JUNCTION    477.75  2594.06     0  00:27       0.548        5.27       0.225
  HS02003125           JUNCTION      0.41  2507.49     0  00:27     0.00301        2.73       0.040
  HS02003122           JUNCTION    442.56  2506.75     0  00:27       0.552        2.71       0.013
  HS02003119           JUNCTION   1292.27  2070.41     0  00:27        1.37        2.16       0.001
  HS02003116           JUNCTION      0.06   850.10     0  00:27    0.000404       0.767       0.046
  HS02003111           JUNCTION      0.00   748.90     0  00:27           0       0.733       0.453
  HS02003108           JUNCTION      0.00   748.76     0  00:27           0       0.735       0.828
  HS02003100           JUNCTION      0.00   748.80     0  00:27           0       0.735       0.388
  HS02003088           JUNCTION    704.39   748.58     0  00:27       0.722       0.774       0.185
  HS02003084           JUNCTION      0.03   355.30     0  00:18    0.000235        0.08       0.139
  HS02003079           JUNCTION      0.15   274.73     0  00:19     0.00108       0.047       0.148
  HS02003077           JUNCTION      0.00   185.99     0  00:26           0      0.0123       0.022
  HS02003065           JUNCTION      0.28  1210.96     0  00:17    0.000206        3.47      -0.011
  HS02003056           JUNCTION      0.23  2116.31     0  00:27    7.03e-06        4.71       0.015
  HS02003053           JUNCTION    471.36  1112.59     0  00:27       0.547        1.26       0.004
  HS02003042           JUNCTION      0.00   644.82     0  00:26           0       0.706      -0.046
  HS02003039           JUNCTION      0.00   644.75     0  00:25           0       0.687       0.013
  HS02003036           JUNCTION   1237.12  1237.12     0  00:27        1.43        1.43       0.024
[...]
  WS02003083WS02003082        1.37      1.37      1.46      1.56         0.01
  WS02003082WS02003081        1.33      1.37      1.33      1.57         1.33
  WS02003081WS02003080        1.32      1.34      1.32      1.37         1.32
  WS02003080WS02003077        0.60      0.60      1.34      1.40         0.01
  WS02003073WS02003076        0.66      0.66      0.93      0.24         0.01
  HS02004901HS02004770        0.72      0.72      0.73      0.08         0.01
  HS02004876HS02004881        0.72      0.74      0.72      1.13         0.72
  HS02004870HS02004876        0.69      0.69      0.74      0.01         0.01
  HS02004049HS02004052        0.19      0.19      0.22      0.01         0.01
  HS02004048HS02004049        0.31      0.41      0.31      0.44         0.31
  HS02004046HS02004048        0.21      0.21      0.41      0.01         0.01
  HS02004043HS02004046        0.17      0.17      0.24      0.07         0.06
  HS02004041HS02004043        0.04      0.04      0.16      0.01         0.01
  HS02004038HS02004041        0.01      0.01      0.04      0.01         0.01
  HS02004028HS02004027        0.01      0.18      0.01      0.20         0.01
  HS02003143HS02003065        0.62      0.62      0.78      0.01         0.01
  HS02004842HS02004848        0.64      0.64      0.76      0.01         0.01
  HS02004837HS02004842        0.67      0.67      0.76      0.01         0.01
  HS02004830HS02004837        0.67      0.67      0.70      0.01         0.01
  HS02004824HS02004830        0.70      0.70      0.73      0.01         0.01
  HS02004817HS02004824        0.73      0.73      1.04      0.01         0.01
  HS02004770HS02004777        0.72      0.72      0.73      0.01         0.01
  HS02004799HS02004480        0.83      0.83      0.86      0.87         0.01
  HS02004792HS02004799        0.79      0.79      0.86      0.01         0.01
  HS02004788HS02004792        0.69      0.69      0.79      0.01         0.01
  HS02004785HS02004788        0.69      0.70      0.69      0.93         0.57
  HS02004777HS02004785        0.70      0.70      0.73      0.01         0.01
  HS02004480HS02004478        0.78      0.83      0.78      1.28         0.78
  HS02004479HS02004480        0.83      0.83      0.85      0.01         0.01
  HS02003013HS02003010        0.39      0.39      0.44      0.27         0.28
  HS02003010HS02003007        0.38      0.38      0.39      0.43         0.38
  HS02003007HS02003004        0.39      0.39      0.45      0.24         0.24
  HS02003004HS02003001        0.01      0.45      0.01      0.86         0.01
  HS02003065HS02003056        0.77      0.77      0.84      0.01         0.01
  HS02003042HS02003053        0.35      0.35      0.76      0.01         0.01
  HS02003028HS02003021        0.28      0.28      0.35      0.01         0.01
  HS02003021HS02003018        0.37      0.37      0.38      0.15         0.15
  HS02003018HS02003017        0.38      0.38      0.38      0.09         0.08
  HS02003017HS02003013        0.38      0.38      0.39      0.33         0.31
  HS02004862HS02004870        0.67      0.67      0.69      0.25         0.22
  HS02004848HS02004852        0.64      0.64      0.66      0.03         0.01
  HS02004856HS02004862        0.64      0.64      0.67      0.01         0.01
  HS02004852HS02004856        0.66      0.66      0.68      0.02         0.01
  HS02004024HS02004022        0.01      0.01      0.23      0.01         0.01
  HS02004022HS02004021        0.23      0.23      0.33      0.01         0.01
  HS02004021HS02004019        0.33      0.33      0.40      0.26         0.26
  HS02004019HS02003162        0.01      0.40      0.01      0.42         0.01
  HS02004052HS02004053        0.21      0.22      0.21      0.24         0.21
  HS02003122HS02003125        0.98      0.98      0.98      0.20         0.24
  HS02003119HS02003122        0.91      0.91      0.99      0.01         0.01
  HS02003116HS02003119        0.78      0.78      0.90      0.01         0.01
  HS02003111HS02003116        0.01      0.01      0.79      0.01         0.01
  HS02004018HS02004019        0.27      0.27      0.40      0.01         0.01
  HS02003056HS02003136        0.79      0.79      0.89      0.01         0.01
  HS02004017HS02004018        0.25      0.25      0.27      0.01         0.01
  HS02004013HS02004017        0.07      0.07      0.25      0.09         0.07
  HS02004010HS02004013        0.01      0.01      0.07      0.01         0.01
  HS02004802HS02004478        0.79      0.79      0.83      0.23         0.01
  HS02004478WS02006287        0.71      0.71      0.81      0.01         0.01
  HS02003079HS02003084        0.03      0.03      0.04      0.01         0.01
  HS02003148HS02003145        0.01      0.01      0.18      0.04         0.01
  HS02003145HS02003143        0.18      0.18      0.60      0.17         0.15
  HS02003136WS02003203        0.96      0.96      1.09      0.01         0.01
  HS02003084HS02003088        0.04      0.04      0.07      0.01         0.01
  HS02003077HS02003079        0.01      0.01      0.03      0.01         0.01
  HS02003108HS02003111        0.21      0.21      0.44      0.01         0.01
  HS02003100HS02003108        0.10      0.10      0.21      0.01         0.01
  HS02003088HS02003100        0.08      0.08      0.10      0.04         0.04
  HS02004817HS02004807        0.81      0.81      1.04      0.01         0.01
  HS02004807HS02004802        0.81      0.81      0.82      0.35         0.36
  HS02003053HS02003056        0.76      0.76      0.84      0.01         0.01
  HS02003039HS02003042        0.42      0.42      0.43      0.27         0.02
  HS02003036HS02003039        0.23      0.23      0.27      0.01         0.01
  YS02001759YS02001757        0.18      0.18      0.19      0.19         0.16
  YS02001762YS02001759        0.18      0.18      0.18      0.18         0.16
  YS02001765YS02001762        0.18      0.18      0.18      0.13         0.10
  YS02001770YS02001767        0.18      0.20      0.18      0.70         0.18
  YS02001774YS02001770        0.19      0.19      0.22      0.01         0.01
  YS02001779YS02001774        0.16      0.16      0.22      0.01         0.01
  YS02001767YS02001765        0.18      0.18      0.18      0.22         0.17
  YS02006561YS02001783        0.49      0.49      0.68      0.01         0.01
  YS02001783YS02001784        0.66      0.68      0.66      0.77         0.66
  YS02001784YS02001785        0.56      0.66      0.56      0.87         0.56
  YS02001790YS02001791        0.01      0.01      0.01      0.65         0.01
  YS02001910YS02001907        0.70      0.70      0.80      0.09         0.10
  YS02001786YS02001788        0.01      0.56      0.01      0.82         0.01
  YS02001915YS02001910        0.63      0.63      0.70      0.01         0.01
  YS02001918YS02001915        0.54      0.54      0.63      0.01         0.01
  YS02001923YS02001920        0.48      0.48      0.56      0.01         0.01
  YS02001926YS02001923        0.21      0.21      0.23      0.01         0.01
  YS02001929YS02001926        0.11      0.11      0.23      0.01         0.01
  YS02001932YS02001929        0.06      0.06      0.11      0.01         0.01
  YS02001935YS02001932        0.01      0.01      0.02      0.01         0.01
  YS02001920YS02001918        0.54      0.54      0.56      0.01         0.01
  YS02003290YS02003287        0.92      0.92      1.02      0.01         0.01
  YS02003294YS02003290        0.93      0.93      1.05      0.01         0.01
  YS02003297YS02003294        1.03      1.03      1.03      0.14         0.14
  YS02003275YS02003272        0.85      0.90      0.85      0.98         0.85
  YS02003300YS02003297        0.96      0.96      1.01      0.01         0.01
  YS02003303YS02003300        0.92      0.92      0.99      0.01         0.01
  YS02005550YS02005551        0.01      0.01      0.01      0.07         0.01
  YS02005568YS02005569        0.01      0.01      0.01      0.16         0.01
  YS02005582YS02005583        0.30      0.56      0.30      0.70         0.30
  YS02003272YS02003269        0.01      0.88      0.01      0.99         0.01
  YS02003278YS02003275        0.91      1.03      0.91      1.23         0.91
  YS02003281YS02003278        0.96      0.96      1.02      0.91         0.91
  YS02003284YS02003281        0.96      0.96      1.03      0.54         0.38
  YS02003287YS02003284        1.01      1.01      1.05      0.01         0.01
  YS02003306YS02003303        0.91      0.91      0.97      0.45         0.47
  YS02003309YS02003306        0.87      0.87      0.91      0.01         0.01
  YS02005600YS02005375        0.23      0.23      0.24      0.24         0.23
  YS02005384YS02005593        0.01      0.91      0.01      0.95         0.01
  YS02005595YS02005596        0.33      0.35      0.33      0.37         0.33
  YS02005612YS02005613        0.14      0.14      0.85      0.35         0.01
  YS02005553YS02005554        0.01      0.01      0.01      0.19         0.01
  YS02005556YS02005557        0.01      0.01      0.01      0.22         0.01
  YS02005562YS02005563        0.01      0.01      0.01      0.13         0.01
  YS02005571YS02005572        0.01      0.14      0.01      0.31         0.01
  YS02005579YS02005580        0.21      0.41      0.21      0.61         0.21
  YS02005580YS02005581        0.18      0.21      0.18      0.23         0.18
  YS02005583YS02005584        0.30      0.30      0.32      0.32         0.30
  YS02006553YS02006556        0.76      0.76      0.81      0.01         0.01
  YS02006556YS02006558        0.79      0.79      0.82      0.01         0.01
  YSB6556YSB1171              0.88      0.88      1.09      0.01         0.01
  YSB1202YSB1205              1.07      1.07      1.14      0.01         0.01
  YSB1205YSB1209              1.14      1.14      1.15      0.64         0.58
  YSB1209YSB1212              1.10      1.15      1.10      1.42         1.10
  YSB1212YSB1215              1.10      1.10      1.13      0.37         0.36
  YSB1215YSB1218              1.13      1.13      1.16      0.41         0.40
  YSB1218YSB1221              1.08      1.08      1.18      0.94         0.94
  YSB1221YSB1224              1.18      1.18      1.21      1.08         1.07
  YSB1224YSB1105              0.81      1.33      0.81      1.60         0.81
  YSB1189YSB1186              0.66      0.66      0.73      0.18         0.18
  YS02001907YS02006553        0.87      0.87      0.90      0.01         0.01
  YS02006562YS02006558        0.68      0.68      0.82      0.01         0.01
  YS02006558YS02006561        0.58      0.75      0.58      0.85         0.58
  YS6184YS6187                0.18      0.18      0.19      0.11         0.12
  YS6360YS6363                0.15      0.19      0.15      0.76         0.15
  YS6354YS6360                0.24      0.24      0.24      0.26         0.23
  YS6351YS6354                0.24      0.27      0.24      0.43         0.24
  YS6350YS6351                0.27      0.30      0.27      0.78         0.27
  YS6348YS6350                0.28      0.28      0.30      0.26         0.25
  YS6344YS6348                0.29      0.29      0.35      0.01         0.01
  YS6363YS6132                0.15      0.15      0.31      0.01         0.01
  YS6137YS6132                0.21      0.21      0.39      0.01         0.01
  YS6189YS6137                0.21      0.21      0.24      0.94         0.01
  YS6187YS6189                0.18      0.18      0.19      0.33         0.01
  YS6179YS6184                0.16      0.16      0.18      0.01         0.01
  YS6176YS6179                0.10      0.10      0.16      0.01         0.01
  YS6171YS6176                0.12      0.12      0.16      0.01         0.01
  YS6168YS6171                0.11      0.11      0.12      0.09         0.08
  YS6164YS6168                0.08      0.08      0.11      0.01         0.01
  YS6162YS6164                0.11      0.11      0.12      0.01         0.01
  YS6132YS6404                0.02      0.19      0.02      0.33         0.01
  YSB1106YSB1105              0.01      0.19      0.01      0.24         0.01
  YSB1109YSB1106              0.19      0.25      0.19      0.37         0.19
  YSB1112YSB1109              0.25      0.26      0.25      0.29         0.25
  YSB1115YSB1112              0.24      0.24      0.26      0.13         0.13
  YSB1118YSB1115              0.26      0.27      0.26      0.29         0.26
  YSB1121YSB1118              0.27      0.30      0.27      0.37         0.27
  YSB1124YSB1121              0.26      0.26      0.30      0.01         0.01
  YSB1105YSB1103              0.01      0.01      0.17      0.17         0.01
  YS02001748YS02001751        0.01      0.01      0.03      0.01         0.01
  YS02001751YS02001754        0.03      0.03      0.10      0.01         0.01
  YS02001754YS02001757        0.11      0.11      0.19      0.01         0.01
  YS02001882YS02001884        0.63      0.63      0.64      0.01         0.01
  YS02001884YS02001887        0.66      0.66      0.67      0.01         0.01
  YS02001890YS02001895        0.62      0.62      0.71      0.01         0.01
  YS02001895YS02001898        0.62      0.62      0.62      0.01         0.01
  YS02001898YS02001901        0.63      0.63      0.66      0.01         0.01
  YS02001901YS02001904        0.65      0.65      0.66      0.01         0.01
  YS02001904YS02001907        0.65      0.65      0.81      0.01         0.01
  YS02001887YS02001890        0.69      0.69      0.69      0.20         0.01
  YS02004309YS02004307        0.18      0.86      0.18      0.86         0.18
  YS02004319YS02004316        0.39      0.39      0.41      0.01         0.01
  YS02005376YS02005378        1.03      1.03      1.48      0.01         0.01
  YS02005378YS02005381        1.20      1.20      1.48      0.19         0.01
  YS02005381YS02005384        0.91      0.91      1.20      1.32         0.01
  YS02005598YS02005374        0.24      0.24      0.26      0.26         0.24
  YS02005602YS02005603        0.20      0.44      0.20      0.64         0.20
  YS02005603YS02005607        0.20      0.20      0.22      0.22         0.20
  YS02005621YS02005622        0.01      0.01      0.01      0.06         0.01
  YS02005624YS02005625        0.01      0.01      0.25      0.03         0.01
  YS02005630YS02005631        0.01      0.04      0.01      0.09         0.01
  YS02005633YS02005634        0.01      0.03      0.01      0.06         0.01
  YS02005636YS02005637        0.01      0.07      0.01      0.11         0.01
  YS02005639YS02005640        0.01      0.05      0.01      0.07         0.01
  YS02005627YS02005628        0.01      0.04      0.01      0.26         0.01
  YS02005644YS02005645        0.01      0.15      0.01      0.18         0.01
  YS02005650YS02005651        0.01      0.14      0.01      0.23         0.01
  YS02005653YS02005654        0.12      0.12      0.12      0.12         0.11
  YS02005654YS02005655        0.01      0.12      0.01      0.21         0.01
  YS02005658YS02005659        0.01      0.06      0.01      0.10         0.01
  YS02005661YS02005662        0.01      0.12      0.01      0.23         0.01
  YS02005664YS02005665        0.01      0.12      0.01      0.43         0.01
  YS02005667YS02005668        0.01      0.01      0.54      0.16         0.01
  YS02005647YS02005648        0.01      0.30      0.01      0.40         0.01
  YS02004312YS02004309        0.66      0.66      0.86      0.01         0.01
  YS02004314YS02004312        0.42      0.42      0.66      0.01         0.01
  YS02004316YS02004314        0.41      0.41      0.42      0.35         0.35
  YS02004320YS02004319        0.01      0.01      0.31      0.01         0.01
  YS6404YS6401                0.01      0.02      0.01      0.72         0.01
  YSB1132YSB1135              0.65      0.65      0.70      0.01         0.01
  YSB1135YSB1138              0.70      0.70      0.72      0.01         0.01
  YSB1138YSB1141              0.72      0.72      0.77      0.42         0.43
  YSB1141YSB1145              0.76      0.76      0.77      0.41         0.39
  YSB1148YSB1151              0.81      0.81      0.90      0.01         0.01
  YSB1151YSB1154              0.86      0.86      0.93      0.01         0.01
  YSB1154YSB6556              0.88      0.88      0.93      0.44         0.01
  YSB1128YSB1132              0.63      0.63      0.65      0.01         0.01
  YSB1145YSB1148              0.77      0.77      0.81      0.01         0.01
  YSB1198YSB1195              0.30      0.30      0.59      0.01         0.01
  YSB1195YSB1192              0.59      0.59      0.62      0.01         0.01
  YSB1192YSB1189              0.62      0.62      0.66      0.01         0.01
  YSB1186YSB1183              0.70      0.70      0.76      0.01         0.01
  YSB1183YSB1180              0.76      0.76      0.79      0.22         0.23
  YSB1180YSB1177              0.79      0.79      0.91      0.01         0.01
  YSB1177YSB1174              0.91      0.91      0.97      0.23         0.24
  YSB1174YSB1171              0.90      0.90      1.02      0.18         0.19
  YSB1171HS02004479           0.81      0.81      0.93      0.01         0.01
  HS02003001HS02003166        0.01      0.01      0.04      0.01         0.01
  YS02004307HS02004052        0.01      0.01      0.22      0.01         0.01
  HS02004881HS02006253        0.72      0.72      1.00      0.01         0.01
  WS0200404049WS6136          0.20      0.20      0.30      0.01         0.01
  HS02003125WS02003215        0.98      0.98      1.06      0.01         0.01
  YS02001793JiankangQianchi        0.01      0.01      2.03      0.01         0.01
  YS02001757CaochengTiaoxuchi        0.18      0.19      0.58      0.13         0.11
  WS02004041WS6409            0.78      0.78      0.83      0.83         0.78
  WSF200WS02003060            0.24      0.24      0.51      0.01         0.01
  HS02004053WS02004407        0.21      0.21      0.82      0.01         0.01
  HS02003036HS02003028        0.23      0.23      0.33      0.01         0.01
  
  
  ***************
  Pumping Summary
  ***************
  
  ---------------------------------------------------------------------------------------------------------
                                                  Min       Avg       Max     Total     Power    % Time Off
                        Percent   Number of      Flow      Flow      Flow    Volume     Usage    Pump Curve
  Pump                 Utilized   Start-Ups       LPS       LPS       LPS  10^6 ltr     Kw-hr    Low   High
  ---------------------------------------------------------------------------------------------------------
  CaochengSewagePump1     56.95           1      0.00    200.00    200.00     0.836      6.65    0.0    0.0
  CaochengSewagePump2     41.07           1      0.00    200.00    200.00     0.603      4.97    0.0    0.0
  CaochengRainPump1       38.00           1      0.00    683.00    683.00     1.904      3.08    0.0   33.8
  CaochengRainPump2       30.73           1      0.00    683.00    683.00     1.540      2.26    0.0   41.8
  JiankangSewagePump      57.29           1      0.00    300.00    300.00     1.261     20.71    0.0    0.0
  JiankangRainPump1       32.04           3      0.00   1000.00   1000.00     2.351     16.42    0.0    0.0
  JiankangRainPump2        0.00           0      0.00      0.00      0.00     0.000      0.00    0.0    0.0
  XierchiSewagePump1      91.81           1      0.00     95.00     95.00     0.640      3.95    0.0    0.0
  XierchiSewagePump2      76.25           1      0.00     95.00     95.00     0.532      3.11    0.0    0.0
  XierchiSewagePump3       0.00           0      0.00      0.00      0.00     0.000      0.00    0.0    0.0
  XierchiSewagePump4       0.00           0      0.00      0.00      0.00     0.000      0.00    0.0    0.0
  

  Analysis begun on:  Fri Jul 29 18:27:25 2022
  Analysis ended on:  Fri Jul 29 19:01:32 2022
  Total elapsed time: 00:34:07